<?xml version="1.0" ?>
<routes>
    <vType id="passenger" vClass="passenger"/>
    <trip id="od_0004175_10000088_10000128" type="passenger" depart="2.05" from="10380314#12" to="-6346108#1"/>
    <trip id="od_0002250_10000048_10000128" type="passenger" depart="3.04" from="-993539721#1" to="-331765683#21"/>
    <trip id="od_0004321_10000091_10000078" type="passenger" depart="5.24" from="-10506130#0" to="-51817330#5"/>
    <trip id="od_0005182_10000108_10000000" type="passenger" depart="5.28" from="124272614" to="-429689224#6"/>
    <trip id="od_0003742_10000080_10000128" type="passenger" depart="5.43" from="-6391418#2" to="-331765683#21"/>
    <trip id="od_0004741_10000099_10000101" type="passenger" depart="7.26" from="8071579#0" to="256891818#10"/>
    <trip id="od_0006453_10000133_10000032" type="passenger" depart="9.42" from="-289314032#18" to="-6352378#6"/>
    <trip id="od_0005484_10000113_10000097" type="passenger" depart="11.55" from="1392487157#2" to="173554582#0"/>
    <trip id="od_0005453_10000112_10000138" type="passenger" depart="11.66" from="-22717152#4" to="-39877393#3"/>
    <trip id="od_0005361_10000111_10000078" type="passenger" depart="12.02" from="6521813#0" to="51817330#4"/>
    <trip id="od_0005619_10000117_10000101" type="passenger" depart="12.80" from="6455027#7" to="256891818#12"/>
    <trip id="od_0005298_10000110_10000087" type="passenger" depart="13.98" from="980725534#0" to="140804207#10"/>
    <trip id="od_0003452_10000075_10000000" type="passenger" depart="14.99" from="-158782281#2" to="-1436851860#6"/>
    <trip id="od_0002431_10000053_10000049" type="passenger" depart="15.05" from="6494871#0" to="-534545516#1"/>
    <trip id="od_0003714_10000080_10000049" type="passenger" depart="15.42" from="-158781095#9" to="462696717#1"/>
    <trip id="od_0001801_10000039_10000082" type="passenger" depart="15.69" from="158123772#3" to="-6457422#2"/>
    <trip id="od_0006083_10000126_10000098" type="passenger" depart="16.02" from="-992539040#1" to="176023072#0"/>
    <trip id="od_0004336_10000091_10000116" type="passenger" depart="16.73" from="-961353214#1" to="-4705086#3"/>
    <trip id="od_0001095_10000026_10000128" type="passenger" depart="17.34" from="260320065#2" to="8027496#0"/>
    <trip id="od_0000392_10000012_10000045" type="passenger" depart="18.70" from="-621088613#3" to="-1097573303#3"/>
    <trip id="od_0002424_10000053_10000000" type="passenger" depart="21.08" from="-6494871#2" to="427901480#0"/>
    <trip id="od_0002973_10000063_10000037" type="passenger" depart="22.01" from="-6514491#1" to="-1215426473#1"/>
    <trip id="od_0003848_10000083_10000000" type="passenger" depart="23.94" from="6511809#21" to="427901480#0"/>
    <trip id="od_0004965_10000104_10000049" type="passenger" depart="25.28" from="-621283307#4" to="462696717#1"/>
    <trip id="od_0001862_10000041_10000024" type="passenger" depart="26.47" from="-157415402#4" to="996520159#0"/>
    <trip id="od_0004211_10000089_10000097" type="passenger" depart="26.73" from="-22717081#32" to="173554582#0"/>
    <trip id="od_0000557_10000016_10000006" type="passenger" depart="27.47" from="-1066252913#1" to="-6500935#4"/>
    <trip id="od_0003306_10000071_10000128" type="passenger" depart="27.68" from="6448301#3" to="331765683#20"/>
    <trip id="od_0004154_10000088_10000087" type="passenger" depart="28.31" from="10380314#12" to="240189228#11"/>
    <trip id="od_0001480_10000033_10000128" type="passenger" depart="29.49" from="-6371315#9" to="8027496#0"/>
    <trip id="od_0000616_10000017_10000074" type="passenger" depart="29.69" from="6441956#0" to="978791737#0"/>
    <trip id="od_0004363_10000092_10000091" type="passenger" depart="31.06" from="-6440688#2" to="10506130#1"/>
    <trip id="od_0001197_10000029_10000024" type="passenger" depart="31.17" from="648876355#9" to="996520159#0"/>
    <trip id="od_0003261_10000071_10000049" type="passenger" depart="31.35" from="-6448301#5" to="534545516#1"/>
    <trip id="od_0004759_10000100_10000000" type="passenger" depart="31.61" from="-6381494#10" to="427901480#0"/>
    <trip id="od_0004101_10000087_10000109" type="passenger" depart="31.77" from="-240189228#19" to="-6439213#2"/>
    <trip id="od_0001567_10000035_10000062" type="passenger" depart="33.59" from="6468238#0" to="6451839#0"/>
    <trip id="od_0005022_10000104_10000127" type="passenger" depart="34.47" from="-6493592#2" to="6496054"/>
    <trip id="od_0000715_10000019_10000076" type="passenger" depart="36.21" from="6521502#0" to="-8072115#5"/>
    <trip id="od_0005788_10000120_10000103" type="passenger" depart="38.65" from="158752806#0" to="-6449713#4"/>
    <trip id="od_0000766_10000020_10000054" type="passenger" depart="39.38" from="-6351202#8" to="158882495#0"/>
    <trip id="od_0001726_10000038_10000017" type="passenger" depart="42.42" from="-6515078#12" to="-229603266"/>
    <trip id="od_0003187_10000069_10000102" type="passenger" depart="45.83" from="976132884#3" to="1167465502#0"/>
    <trip id="od_0001219_10000029_10000050" type="passenger" depart="48.15" from="-648876355#11" to="157032158#1"/>
    <trip id="od_0000404_10000012_10000056" type="passenger" depart="48.73" from="621088613#0" to="456673720"/>
    <trip id="od_0005854_10000121_10000128" type="passenger" depart="49.15" from="6454415#0" to="-6346108#1"/>
    <trip id="od_0000936_10000024_10000000" type="passenger" depart="50.19" from="-304467705#4" to="6347516#0"/>
    <trip id="od_0003347_10000072_10000131" type="passenger" depart="55.28" from="-6407638#2" to="6398028#8"/>
    <trip id="od_0001356_10000031_10000057" type="passenger" depart="56.69" from="999911119#2" to="-590371198#2"/>
    <trip id="od_0003105_10000068_10000049" type="passenger" depart="57.34" from="-180075374#1" to="534545516#1"/>
    <trip id="od_0003688_10000079_10000072" type="passenger" depart="57.43" from="-988151278#4" to="-35111035#2"/>
    <trip id="od_0004823_10000101_10000049" type="passenger" depart="57.83" from="256891818#12" to="-462696717#1"/>
    <trip id="od_0001059_10000026_10000016" type="passenger" depart="61.03" from="260320065#2" to="-1066252913#1"/>
    <trip id="od_0003577_10000076_10000104" type="passenger" depart="61.46" from="-6426876#5" to="-621283307#4"/>
    <trip id="od_0002838_10000060_10000052" type="passenger" depart="62.97" from="-970764754#1" to="912290518#4"/>
    <trip id="od_0001727_10000038_10000024" type="passenger" depart="63.82" from="-6515078#12" to="-304467705#4"/>
    <trip id="od_0005539_10000115_10000000" type="passenger" depart="64.46" from="-428318250" to="6347516#0"/>
    <trip id="od_0004813_10000101_10000000" type="passenger" depart="64.92" from="256891818#12" to="-429689226#1"/>
    <trip id="od_0000459_10000014_10000001" type="passenger" depart="66.87" from="996758539#3" to="1246730381#0"/>
    <trip id="od_0001709_10000037_10000106" type="passenger" depart="68.38" from="-8165747#0" to="-6391462#9"/>
    <trip id="od_0000044_10000001_10000128" type="passenger" depart="69.62" from="1246730381#0" to="-331765683#21"/>
    <trip id="od_0000790_10000021_10000001" type="passenger" depart="70.01" from="-1200942671" to="6452375#0"/>
    <trip id="od_0001328_10000030_10000128" type="passenger" depart="70.10" from="-6473669#14" to="6346108#0"/>
    <trip id="od_0006212_10000128_10000101" type="passenger" depart="72.28" from="-331765683#21" to="22927956#1"/>
    <trip id="od_0001281_10000030_10000049" type="passenger" depart="72.54" from="-87667836#16" to="-534545516#1"/>
    <trip id="od_0004178_10000088_10000133" type="passenger" depart="73.65" from="158781288#4" to="-7977761#2"/>
    <trip id="od_0006236_10000129_10000043" type="passenger" depart="74.71" from="-6440342#4" to="-6466932"/>
    <trip id="od_0001969_10000042_10000101" type="passenger" depart="74.98" from="999155185#0" to="256891818#12"/>
    <trip id="od_0005476_10000113_10000056" type="passenger" depart="75.34" from="1392487157#0" to="1263921069#0"/>
    <trip id="od_0003417_10000074_10000087" type="passenger" depart="75.52" from="978791736#0" to="-240189228#19"/>
    <trip id="od_0002749_10000058_10000062" type="passenger" depart="76.09" from="-58334141#17" to="-104558600#1"/>
    <trip id="od_0001919_10000042_10000037" type="passenger" depart="76.57" from="-1020673039#2" to="-8165747#0"/>
    <trip id="od_0004264_10000090_10000078" type="passenger" depart="78.00" from="477967258#0" to="169511255#1"/>
    <trip id="od_0004180_10000089_10000000" type="passenger" depart="78.18" from="-22717081#28" to="-429689226#1"/>
    <trip id="od_0002039_10000044_10000049" type="passenger" depart="80.59" from="926425193#0" to="-462696717#1"/>
    <trip id="od_0003967_10000085_10000128" type="passenger" depart="81.37" from="1090651687#2" to="-6346108#1"/>
    <trip id="od_0005209_10000108_10000098" type="passenger" depart="82.01" from="177678723#2" to="-560096281#4"/>
    <trip id="od_0005614_10000117_10000098" type="passenger" depart="82.34" from="991593418#2" to="560096281#0"/>
    <trip id="od_0006279_10000130_10000019" type="passenger" depart="82.57" from="306056517#11" to="6521502#0"/>
    <trip id="od_0001854_10000040_10000128" type="passenger" depart="82.59" from="-965874293#2" to="6346108#0"/>
    <trip id="od_0003017_10000064_10000085" type="passenger" depart="83.01" from="-986930791#3" to="-1090651687#5"/>
    <trip id="od_0004102_10000087_10000110" type="passenger" depart="83.56" from="140804207#10" to="980725534#0"/>
    <trip id="od_0002607_10000055_10000078" type="passenger" depart="84.72" from="6481166#0" to="-51817330#5"/>
    <trip id="od_0001155_10000028_10000049" type="passenger" depart="85.98" from="1066272566#0" to="8111113#1"/>
    <trip id="od_0003519_10000076_10000049" type="passenger" depart="87.94" from="-6426876#5" to="-462696717#1"/>
    <trip id="od_0001608_10000036_10000041" type="passenger" depart="88.83" from="-34260276#5" to="-157415402#4"/>
    <trip id="od_0005646_10000118_10000049" type="passenger" depart="89.80" from="882683786#3" to="-462696717#1"/>
    <trip id="od_0005195_10000108_10000050" type="passenger" depart="90.33" from="175933057" to="124272636"/>
    <trip id="od_0001946_10000042_10000051" type="passenger" depart="94.52" from="1020673039#0" to="332187358#1"/>
    <trip id="od_0003260_10000071_10000047" type="passenger" depart="94.53" from="-6448301#5" to="993492289#1"/>
    <trip id="od_0004230_10000089_10000127" type="passenger" depart="96.80" from="22717081#26" to="331926453#2"/>
    <trip id="od_0002636_10000056_10000002" type="passenger" depart="96.82" from="456673720" to="1426148281#0"/>
    <trip id="od_0000705_10000019_10000050" type="passenger" depart="97.68" from="-6447167#10" to="124272636"/>
    <trip id="od_0002488_10000054_10000049" type="passenger" depart="99.87" from="992818926#0" to="534545516#1"/>
    <trip id="od_0003638_10000077_10000107" type="passenger" depart="101.95" from="1137439955#0" to="-158265639#2"/>
    <trip id="od_0004424_10000093_10000103" type="passenger" depart="103.72" from="-1410029349#0" to="-6449713#4"/>
    <trip id="od_0002063_10000044_10000098" type="passenger" depart="104.93" from="-6494970#10" to="176023072#0"/>
    <trip id="od_0003502_10000075_10000128" type="passenger" depart="106.78" from="978882075#2" to="8027496#0"/>
    <trip id="od_0004302_10000091_10000000" type="passenger" depart="108.75" from="-10506130#0" to="-429689226#1"/>
    <trip id="od_0002718_10000057_10000128" type="passenger" depart="109.32" from="-590371198#2" to="-331765683#21"/>
    <trip id="od_0003375_10000073_10000116" type="passenger" depart="109.40" from="1073212117" to="-1489035430#3"/>
    <trip id="od_0005797_10000120_10000128" type="passenger" depart="110.26" from="975687940#1" to="6346108#0"/>
    <trip id="od_0000781_10000020_10000118" type="passenger" depart="110.64" from="-6351202#8" to="-51538520#2"/>
    <trip id="od_0004324_10000091_10000079" type="passenger" depart="112.00" from="-10506130#7" to="-988151278#4"/>
    <trip id="od_0002626_10000055_10000128" type="passenger" depart="112.95" from="465971499#0" to="331765683#20"/>
    <trip id="od_0001412_10000032_10000097" type="passenger" depart="116.76" from="-820125415#5" to="791135494#1"/>
    <trip id="od_0003710_10000080_10000040" type="passenger" depart="116.94" from="158781095#7" to="-965874293#2"/>
    <trip id="od_0000268_10000006_10000131" type="passenger" depart="116.94" from="6500935#0" to="6398028#3"/>
    <trip id="od_0004884_10000102_10000050" type="passenger" depart="117.09" from="1167465502#0" to="124272636"/>
    <trip id="od_0001922_10000042_10000041" type="passenger" depart="117.16" from="249081827#0" to="157415402#5"/>
    <trip id="od_0001874_10000041_10000050" type="passenger" depart="117.49" from="157415402#0" to="157032158#1"/>
    <trip id="od_0000454_10000014_10000000" type="passenger" depart="118.69" from="648876375#0" to="-1436851860#6"/>
    <trip id="od_0003548_10000076_10000078" type="passenger" depart="118.87" from="6426876#3" to="-460419023#1"/>
    <trip id="od_0006343_10000130_10000110" type="passenger" depart="119.94" from="306056517#8" to="-6494366#2"/>
    <trip id="od_0004697_10000099_10000049" type="passenger" depart="120.99" from="6474762#0" to="-534545516#1"/>
    <trip id="od_0001001_10000024_10000128" type="passenger" depart="121.09" from="-304467705#4" to="331765683#20"/>
    <trip id="od_0002338_10000051_10000050" type="passenger" depart="122.60" from="-6453045#0" to="428227916"/>
    <trip id="od_0003832_10000082_10000078" type="passenger" depart="124.47" from="6457422#0" to="169511255#1"/>
    <trip id="od_0001973_10000042_10000103" type="passenger" depart="125.21" from="999155185#0" to="-6449713#4"/>
    <trip id="od_0001476_10000033_10000116" type="passenger" depart="125.29" from="-6398795#5" to="-4705086#3"/>
    <trip id="od_0001579_10000035_10000100" type="passenger" depart="127.07" from="-6335071#2" to="6381494#8"/>
    <trip id="od_0002732_10000058_10000049" type="passenger" depart="127.54" from="-58334141#17" to="462696717#1"/>
    <trip id="od_0000144_10000004_10000097" type="passenger" depart="129.24" from="-6346669#6" to="1047887475#0"/>
    <trip id="od_0003481_10000075_10000087" type="passenger" depart="129.56" from="158782281#0" to="240189228#11"/>
    <trip id="od_0003443_10000074_10000127" type="passenger" depart="130.05" from="-978791737#3" to="6496054"/>
    <trip id="od_0004025_10000087_10000049" type="passenger" depart="132.53" from="-240191064#23" to="8111113#1"/>
    <trip id="od_0002830_10000060_10000049" type="passenger" depart="132.87" from="970764754#0" to="-534545516#1"/>
    <trip id="od_0003413_10000074_10000078" type="passenger" depart="132.89" from="978791738#1" to="-169511255#3"/>
    <trip id="od_0006425_10000132_10000052" type="passenger" depart="133.55" from="403704346#3" to="-912290518#6"/>
    <trip id="od_0000648_10000018_10000049" type="passenger" depart="134.76" from="-229591740#3" to="534545516#1"/>
    <trip id="od_0003674_10000079_10000000" type="passenger" depart="135.49" from="988151278#0" to="6347516#0"/>
    <trip id="od_0001852_10000040_10000116" type="passenger" depart="137.82" from="-49394452#7" to="-4705086#3"/>
    <trip id="od_0000079_10000003_10000009" type="passenger" depart="139.56" from="-263821573#3" to="1163961143"/>
    <trip id="od_0005237_10000109_10000049" type="passenger" depart="139.65" from="6439213#1" to="8111113#1"/>
    <trip id="od_0003584_10000076_10000116" type="passenger" depart="141.24" from="-6426876#5" to="-4705086#3"/>
    <trip id="od_0002619_10000055_10000103" type="passenger" depart="142.97" from="-263669069#2" to="-990152134#2"/>
    <trip id="od_0003789_10000081_10000097" type="passenger" depart="143.14" from="-1066006912" to="791135492#1"/>
    <trip id="od_0004547_10000096_10000116" type="passenger" depart="143.25" from="6499651" to="-372355692#2"/>
    <trip id="od_0003888_10000084_10000097" type="passenger" depart="143.82" from="6489347#9" to="4794449#1"/>
    <trip id="od_0000590_10000016_10000116" type="passenger" depart="144.38" from="-1066252913#1" to="-4705086#3"/>
    <trip id="od_0000549_10000015_10000131" type="passenger" depart="144.56" from="157481951#2" to="-6521322#9"/>
    <trip id="od_0004448_10000094_10000049" type="passenger" depart="147.67" from="-1319200088" to="462696717#1"/>
    <trip id="od_0002592_10000055_10000049" type="passenger" depart="150.03" from="263669069#0" to="462696717#1"/>
    <trip id="od_0002403_10000052_10000098" type="passenger" depart="153.54" from="-6349123#4" to="-560096281#4"/>
    <trip id="od_0006019_10000125_10000049" type="passenger" depart="154.53" from="-804788513#2" to="462696717#1"/>
    <trip id="od_0001498_10000034_10000037" type="passenger" depart="154.74" from="-79445352" to="6506018#0"/>
    <trip id="od_0006299_10000130_10000050" type="passenger" depart="154.95" from="-6394125#2" to="96260967"/>
    <trip id="od_0004842_10000101_10000051" type="passenger" depart="155.33" from="256891818#12" to="532416977#0"/>
    <trip id="od_0003821_10000081_10000131" type="passenger" depart="155.47" from="462696734#2" to="6398028#8"/>
    <trip id="od_0000804_10000021_10000049" type="passenger" depart="157.37" from="28737509#2" to="462696717#1"/>
    <trip id="od_0003767_10000081_10000050" type="passenger" depart="158.02" from="1066006912" to="96260967"/>
    <trip id="od_0005545_10000115_10000049" type="passenger" depart="158.68" from="-6359166" to="462696717#1"/>
    <trip id="od_0004687_10000099_10000000" type="passenger" depart="159.09" from="6474762#0" to="-1436851860#6"/>
    <trip id="od_0000907_10000023_10000056" type="passenger" depart="163.79" from="6415599#0" to="452330584#1"/>
    <trip id="od_0002814_10000059_10000100" type="passenger" depart="165.27" from="-9250396#0" to="-6381494#10"/>
    <trip id="od_0004515_10000096_10000000" type="passenger" depart="165.99" from="240570106#0" to="-429689226#1"/>
    <trip id="od_0002389_10000052_10000054" type="passenger" depart="166.24" from="912290518#4" to="-813722270#7"/>
    <trip id="od_0000047_10000002_10000049" type="passenger" depart="166.61" from="6421397#0" to="534545516#1"/>
    <trip id="od_0004012_10000087_10000000" type="passenger" depart="167.39" from="240191064#12" to="-1436851860#6"/>
    <trip id="od_0001965_10000042_10000098" type="passenger" depart="169.64" from="999155185#3" to="176023072#0"/>
    <trip id="od_0005471_10000113_10000050" type="passenger" depart="169.73" from="-6499563#1" to="428227916"/>
    <trip id="od_0004107_10000087_10000112" type="passenger" depart="169.81" from="240191064#12" to="-6392328#9"/>
    <trip id="od_0001954_10000042_10000078" type="passenger" depart="170.39" from="999155185#3" to="-51817330#5"/>
    <trip id="od_0003227_10000070_10000076" type="passenger" depart="173.02" from="976142289#2" to="-1343933295#5"/>
    <trip id="od_0005912_10000123_10000097" type="passenger" depart="173.03" from="240157263#0" to="791135494#1"/>
    <trip id="od_0000665_10000018_10000098" type="passenger" depart="174.86" from="-229591740#3" to="176023072#0"/>
    <trip id="od_0003650_10000077_10000131" type="passenger" depart="177.51" from="-1064464832#5" to="6521322#4"/>
    <trip id="od_0004945_10000103_10000116" type="passenger" depart="178.33" from="-6449713#4" to="4705086#0"/>
    <trip id="od_0003439_10000074_10000116" type="passenger" depart="178.68" from="-978791737#3" to="4705086#0"/>
    <trip id="od_0004599_10000097_10000098" type="passenger" depart="178.99" from="173554582#0" to="-546108831#3"/>
    <trip id="od_0004978_10000104_10000056" type="passenger" depart="179.55" from="621283307#0" to="452330584#1"/>
    <trip id="od_0003621_10000077_10000069" type="passenger" depart="182.28" from="-1137439955#3" to="976132884#4"/>
    <trip id="od_0002907_10000062_10000049" type="passenger" depart="183.38" from="6451839#0" to="-462696717#1"/>
    <trip id="od_0006329_10000130_10000098" type="passenger" depart="183.56" from="-306056517#12" to="176023072#0"/>
    <trip id="od_0004456_10000094_10000051" type="passenger" depart="183.84" from="983406790#4" to="332187358#1"/>
    <trip id="od_0005852_10000121_10000124" type="passenger" depart="183.89" from="-6454415#4" to="-332320345#1"/>
    <trip id="od_0000246_10000006_10000078" type="passenger" depart="185.10" from="509069421" to="-460419023#1"/>
    <trip id="od_0005812_10000121_10000049" type="passenger" depart="188.99" from="788467320#0" to="462696717#1"/>
    <trip id="od_0005587_10000117_10000049" type="passenger" depart="192.08" from="-6347330#3" to="534545516#1"/>
    <trip id="od_0005931_10000124_10000001" type="passenger" depart="193.03" from="754695318#1" to="-428021725#2"/>
    <trip id="od_0006220_10000128_10000116" type="passenger" depart="193.67" from="331765683#20" to="-372355692#2"/>
    <trip id="od_0006324_10000130_10000097" type="passenger" depart="194.04" from="-306056517#12" to="1047887475#0"/>
    <trip id="od_0004441_10000094_10000001" type="passenger" depart="195.65" from="983406790#4" to="6452375#0"/>
    <trip id="od_0003853_10000083_10000050" type="passenger" depart="197.06" from="-6511809#23" to="124272636"/>
    <trip id="od_0003694_10000079_10000094" type="passenger" depart="197.18" from="988151278#3" to="1319200088"/>
    <trip id="od_0004662_10000098_10000062" type="passenger" depart="198.23" from="176023072#0" to="-6451839#7"/>
    <trip id="od_0006686_10000138_10000049" type="passenger" depart="198.46" from="158718276#0" to="-534545516#1"/>
    <trip id="od_0005091_10000106_10000054" type="passenger" depart="198.61" from="-237770216#4" to="158882495#0"/>
    <trip id="od_0003300_10000071_10000116" type="passenger" depart="200.40" from="38496317#9" to="4921119#0"/>
    <trip id="od_0000475_10000014_10000050" type="passenger" depart="200.63" from="-648876375#1" to="124272636"/>
    <trip id="od_0000259_10000006_10000101" type="passenger" depart="202.95" from="6500935#0" to="256891818#10"/>
    <trip id="od_0001592_10000036_10000000" type="passenger" depart="203.18" from="-158622458#17" to="-429689224#6"/>
    <trip id="od_0001848_10000040_10000098" type="passenger" depart="205.41" from="-49394452#7" to="176023072#0"/>
    <trip id="od_0003721_10000080_10000052" type="passenger" depart="209.11" from="158781095#7" to="-6349123#4"/>
    <trip id="od_0000634_10000018_10000000" type="passenger" depart="209.64" from="87466501#0" to="6347516#0"/>
    <trip id="od_0001256_10000029_10000136" type="passenger" depart="209.82" from="6500252#3" to="749754758#3"/>
    <trip id="od_0001162_10000028_10000050" type="passenger" depart="210.24" from="1066272566#0" to="157032158#1"/>
    <trip id="od_0004979_10000104_10000060" type="passenger" depart="211.15" from="-621283307#2" to="970764746#3"/>
    <trip id="od_0000925_10000023_10000115" type="passenger" depart="212.28" from="-955922903#0" to="8111851#0"/>
    <trip id="od_0002030_10000043_10000136" type="passenger" depart="212.56" from="-6409640#16" to="-6414229#10"/>
    <trip id="od_0002332_10000051_10000049" type="passenger" depart="212.92" from="-532416980#0" to="534545516#1"/>
    <trip id="od_0002445_10000053_10000054" type="passenger" depart="213.20" from="-6494871#2" to="-813722270#7"/>
    <trip id="od_0002369_10000052_10000049" type="passenger" depart="214.08" from="-912290518#6" to="-462696717#1"/>
    <trip id="od_0001494_10000034_10000030" type="passenger" depart="216.13" from="-461530091#2" to="-87667836#16"/>
    <trip id="od_0001010_10000025_10000001" type="passenger" depart="217.90" from="341114600#1" to="1246730381#0"/>
    <trip id="od_0003354_10000073_10000049" type="passenger" depart="219.10" from="-1073212117" to="-462696717#1"/>
    <trip id="od_0005301_10000110_10000090" type="passenger" depart="219.64" from="-980725534#2" to="-159934458#0"/>
    <trip id="od_0001656_10000037_10000000" type="passenger" depart="221.87" from="8083087" to="427901480#0"/>
    <trip id="od_0002311_10000050_10000058" type="passenger" depart="222.41" from="124272636" to="6359102"/>
    <trip id="od_0002690_10000057_10000068" type="passenger" depart="223.74" from="-590371198#2" to="-180075374#1"/>
    <trip id="od_0002453_10000053_10000078" type="passenger" depart="224.76" from="436480242#1" to="169511255#1"/>
    <trip id="od_0000029_10000000_10000127" type="passenger" depart="226.17" from="6347516#0" to="6496054"/>
    <trip id="od_0003367_10000073_10000097" type="passenger" depart="226.34" from="-1272366688#2" to="791135494#1"/>
    <trip id="od_0004004_10000086_10000116" type="passenger" depart="229.18" from="-979909245#1" to="-372355692#2"/>
    <trip id="od_0001534_10000034_10000128" type="passenger" depart="229.35" from="79445352" to="-331765683#21"/>
    <trip id="od_0000349_10000010_10000050" type="passenger" depart="229.54" from="621426679#5" to="880540691"/>
    <trip id="od_0003276_10000071_10000069" type="passenger" depart="231.01" from="38496317#6" to="976132884#4"/>
    <trip id="od_0002256_10000049_10000000" type="passenger" depart="231.30" from="462696717#1" to="427901480#0"/>
    <trip id="od_0001532_10000034_10000116" type="passenger" depart="231.90" from="30909000#0" to="-372355692#2"/>
    <trip id="od_0005877_10000122_10000109" type="passenger" depart="238.79" from="-6517867#6" to="428098913#1"/>
    <trip id="od_0000966_10000024_10000050" type="passenger" depart="242.18" from="304467705#0" to="96260967"/>
    <trip id="od_0000271_10000007_10000000" type="passenger" depart="242.73" from="160096977#10" to="-1436851860#6"/>
    <trip id="od_0001292_10000030_10000050" type="passenger" depart="243.01" from="6473669#12" to="124272636"/>
    <trip id="od_0006195_10000128_10000098" type="passenger" depart="247.37" from="-331765683#21" to="-560096281#4"/>
    <trip id="od_0004202_10000089_10000078" type="passenger" depart="247.37" from="-22716708#13" to="51817330#4"/>
    <trip id="od_0004393_10000093_10000049" type="passenger" depart="247.98" from="-456889632#4" to="462696717#1"/>
    <trip id="od_0001606_10000036_10000034" type="passenger" depart="248.45" from="158622458#15" to="-461530091#2"/>
    <trip id="od_0006567_10000136_10000049" type="passenger" depart="248.54" from="-6414229#10" to="462696717#1"/>
    <trip id="od_0006151_10000128_10000049" type="passenger" depart="249.72" from="331765683#20" to="-534545516#1"/>
    <trip id="od_0006396_10000131_10000098" type="passenger" depart="250.65" from="6398028#8" to="-560096281#4"/>
    <trip id="od_0003834_10000082_10000097" type="passenger" depart="251.42" from="6457422#2" to="1047887475#0"/>
    <trip id="od_0004524_10000096_10000049" type="passenger" depart="251.84" from="-240570106#1" to="534545516#1"/>
    <trip id="od_0001796_10000039_10000078" type="passenger" depart="256.42" from="-6354836#16" to="-169511255#3"/>
    <trip id="od_0001227_10000029_10000054" type="passenger" depart="259.06" from="-648876355#11" to="158882495#0"/>
    <trip id="od_0002628_10000055_10000131" type="passenger" depart="259.08" from="263669069#0" to="-6398028#7"/>
    <trip id="od_0004719_10000099_10000054" type="passenger" depart="259.88" from="6474762#0" to="992818926#0"/>
    <trip id="od_0006663_10000137_10000101" type="passenger" depart="259.89" from="-343101083#5" to="335460685#1"/>
    <trip id="od_0001553_10000035_10000049" type="passenger" depart="259.99" from="-6335071#2" to="8111113#1"/>
    <trip id="od_0005701_10000119_10000040" type="passenger" depart="262.90" from="-158285589#2" to="49394452#4"/>
    <trip id="od_0001694_10000037_10000060" type="passenger" depart="264.48" from="-1215426473#1" to="970764746#3"/>
    <trip id="od_0000412_10000012_10000103" type="passenger" depart="264.71" from="-621088613#3" to="-990152134#2"/>
    <trip id="od_0005561_10000115_10000097" type="passenger" depart="264.76" from="8111851#0" to="791135494#1"/>
    <trip id="od_0001459_10000033_10000052" type="passenger" depart="264.93" from="-6398795#5" to="-912290518#6"/>
    <trip id="od_0001814_10000039_10000116" type="passenger" depart="265.57" from="-6354836#16" to="-372355692#2"/>
    <trip id="od_0003972_10000085_10000137" type="passenger" depart="266.80" from="-1090651687#5" to="-343101083#5"/>
    <trip id="od_0005072_10000106_10000049" type="passenger" depart="267.84" from="6391462#7" to="8111113#1"/>
    <trip id="od_0000169_10000005_10000020" type="passenger" depart="267.93" from="251671335#2" to="-6351202#8"/>
    <trip id="od_0000884_10000023_10000030" type="passenger" depart="269.08" from="-955922903#2" to="6473669#12"/>
    <trip id="od_0001611_10000036_10000049" type="passenger" depart="269.42" from="-34260276#5" to="8111113#1"/>
    <trip id="od_0006091_10000126_10000116" type="passenger" depart="270.17" from="992539042#4" to="4921119#0"/>
    <trip id="od_0005149_10000107_10000049" type="passenger" depart="270.53" from="158265639#0" to="8111113#1"/>
    <trip id="od_0006589_10000136_10000054" type="passenger" depart="271.98" from="749754758#3" to="813722270#5"/>
    <trip id="od_0006065_10000126_10000050" type="passenger" depart="272.89" from="-992539041#3" to="157032158#1"/>
    <trip id="od_0005579_10000116_10000043" type="passenger" depart="273.14" from="4921119#0" to="336908257#10"/>
    <trip id="od_0005053_10000105_10000130" type="passenger" depart="274.57" from="88794168#0" to="306056517#8"/>
    <trip id="od_0001900_10000042_10000000" type="passenger" depart="275.24" from="249081827#0" to="-429689224#6"/>
    <trip id="od_0002210_10000048_10000050" type="passenger" depart="275.75" from="-993539721#1" to="428227916"/>
    <trip id="od_0001746_10000038_10000068" type="passenger" depart="276.24" from="6515078#9" to="180075374#0"/>
    <trip id="od_0004044_10000087_10000050" type="passenger" depart="276.51" from="-240191064#23" to="157032158#1"/>
    <trip id="od_0000486_10000014_10000078" type="passenger" depart="276.80" from="648876376#0" to="-51817330#5"/>
    <trip id="od_0004561_10000097_10000049" type="passenger" depart="278.77" from="1047887475#0" to="8111113#1"/>