<?xml version="1.0" ?>
<nodes>
    <node id="1" x="1000" y="5000" type="priority"/>
    <node id="2" x="4000" y="5000" type="priority"/>
    <node id="3" x="7000" y="5000" type="priority"/>
    <node id="4" x="2000" y="4500" type="priority"/>
    <node id="5" x="6000" y="4500" type="priority"/>
    <node id="6" x="3000" y="4000" type="priority"/>
    <node id="7" x="5000" y="4000" type="priority"/>
    <node id="8" x="3000" y="3500" type="priority"/>
    <node id="9" x="5000" y="3500" type="priority"/>
    <node id="10" x="7000" y="3500" type="priority"/>
    <node id="11" x="1500" y="3000" type="priority"/>
    <node id="12" x="3000" y="3000" type="priority"/>
    <node id="13" x="5000" y="3000" type="priority"/>
    <node id="14" x="7000" y="3000" type="priority"/>
    <node id="15" x="1500" y="2500" type="priority"/>
    <node id="16" x="3000" y="2500" type="priority"/>
    <node id="17" x="5000" y="2500" type="priority"/>
    <node id="18" x="7000" y="2500" type="priority"/>
    <node id="19" x="1500" y="2000" type="priority"/>
    <node id="20" x="3500" y="2000" type="priority"/>
    <node id="21" x="5000" y="2000" type="priority"/>
    <node id="22" x="1500" y="1500" type="priority"/>
    <node id="23" x="3500" y="1500" type="priority"/>
    <node id="24" x="5000" y="1500" type="priority"/>
</nodes>
