<?xml version="1.0" encoding="UTF-8"?>

<!-- generated on 2026-03-08 20:50:57 by Eclipse SUMO netconvert Version 1.20.0
<configuration xmlns:xsi="http://www.w3.org/2001/XMLSchema-instance" xsi:noNamespaceSchemaLocation="http://sumo.dlr.de/xsd/netconvertConfiguration.xsd">

    <input>
        <node-files value="sioux_falls_network/sioux_falls.nod.xml"/>
        <edge-files value="sioux_falls_network/sioux_falls.edg.xml"/>
    </input>

    <output>
        <output-file value="sioux_falls_network/sioux_falls.net.xml"/>
    </output>

    <junctions>
        <junctions.join value="false"/>
    </junctions>

    <report>
        <no-warnings value="true"/>
    </report>

</configuration>
-->

<net version="1.20" junctionCornerDetail="5" limitTurnSpeed="5.50" xmlns:xsi="http://www.w3.org/2001/XMLSchema-instance" xsi:noNamespaceSchemaLocation="http://sumo.dlr.de/xsd/net_file.xsd">

    <location netOffset="-1000.00,-1500.00" convBoundary="0.00,0.00,6000.00,3500.00" origBoundary="1000.00,1500.00,7000.00,5000.00" projParameter="!"/>

    <edge id=":1_0" function="internal">
        <lane id=":1_0_0" index="0" speed="4.77" length="9.60" shape="0.00,3504.80 0.00,3495.20"/>
        <lane id=":1_0_1" index="1" speed="3.24" length="3.20" shape="0.00,3501.60 0.00,3498.40"/>
    </edge>
    <edge id=":1_2" function="internal">
        <lane id=":1_2_0" index="0" speed="4.77" length="9.60" shape="0.00,3504.80 0.00,3495.20"/>
        <lane id=":1_2_1" index="1" speed="3.24" length="3.20" shape="0.00,3501.60 0.00,3498.40"/>
    </edge>
    <edge id=":10_0" function="internal">
        <lane id=":10_0_0" index="0" speed="8.96" length="18.06" shape="6004.80,1993.60 6004.10,1998.50 6002.00,2002.00 5998.50,2004.10 5993.60,2004.80"/>
        <lane id=":10_0_1" index="1" speed="7.66" length="12.90" shape="6001.60,1993.60 6001.10,1997.10 5999.60,1999.60 5997.10,2001.10 5993.60,2001.60"/>
    </edge>
    <edge id=":10_2" function="internal">
        <lane id=":10_2_0" index="0" speed="3.90" length="2.58" shape="5993.60,1995.20 5994.30,1995.10 5994.80,1994.80 5995.10,1994.30 5995.20,1993.60"/>
        <lane id=":10_2_1" index="1" speed="6.08" length="7.74" shape="5993.60,1998.40 5995.70,1998.10 5997.20,1997.20 5998.10,1995.70 5998.40,1993.60"/>
    </edge>
    <edge id=":11_0" function="internal">
        <lane id=":11_0_0" index="0" speed="13.89" length="28.02" shape="500.76,1517.46 498.56,1510.51 496.79,1503.72 495.62,1496.84 495.20,1489.60"/>
        <lane id=":11_0_1" index="1" speed="13.89" length="28.02" shape="503.79,1516.44 501.62,1509.65 499.91,1503.21 498.80,1496.68 498.40,1489.60"/>
    </edge>
    <edge id=":11_2" function="internal">
        <lane id=":11_2_0" index="0" speed="13.17" length="2.03" shape="503.79,1516.44 503.94,1514.42"/>
    </edge>
    <edge id=":11_3" function="internal">
        <lane id=":11_3_0" index="0" speed="11.63" length="1.91" shape="503.79,1516.44 504.00,1514.54"/>
    </edge>
    <edge id=":11_4" function="internal">
        <lane id=":11_4_0" index="0" speed="3.65" length="1.44" shape="503.79,1516.44 504.17,1515.05"/>
    </edge>
    <edge id=":11_20" function="internal">
        <lane id=":11_20_0" index="0" speed="13.17" length="48.07" shape="503.94,1514.42 504.47,1507.28 512.66,1501.78 526.33,1499.10 543.44,1498.40"/>
    </edge>
    <edge id=":11_21" function="internal">
        <lane id=":11_21_0" index="0" speed="11.63" length="44.52" shape="504.00,1514.54 504.67,1508.17 513.24,1505.89 526.57,1507.83 541.72,1512.22"/>
    </edge>
    <edge id=":11_22" function="internal">
        <lane id=":11_22_0" index="0" speed="3.65" length="3.23" shape="504.17,1515.05 504.81,1514.42 505.69,1514.55 506.83,1515.43"/>
    </edge>
    <edge id=":11_5" function="internal">
        <lane id=":11_5_0" index="0" speed="9.75" length="32.20" shape="539.69,1518.29 525.79,1514.04 516.18,1511.97 510.88,1512.10 509.87,1514.42"/>
    </edge>
    <edge id=":11_6" function="internal">
        <lane id=":11_6_0" index="0" speed="13.89" length="54.97" shape="539.69,1518.29 520.23,1510.94 506.32,1503.70 497.98,1496.59 495.20,1489.60"/>
        <lane id=":11_6_1" index="1" speed="13.89" length="51.11" shape="540.70,1515.25 522.20,1508.36 508.98,1501.79 501.04,1495.54 498.40,1489.60"/>
    </edge>
    <edge id=":11_8" function="internal">
        <lane id=":11_8_0" index="0" speed="7.43" length="23.65" shape="540.70,1515.25 536.00,1511.36 535.14,1505.70 537.74,1500.61 543.44,1498.40"/>
    </edge>
    <edge id=":11_9" function="internal">
        <lane id=":11_9_0" index="0" speed="3.65" length="4.67" shape="540.70,1515.25 539.82,1514.12 539.69,1513.23 540.32,1512.60 541.72,1512.22"/>
    </edge>
    <edge id=":11_10" function="internal">
        <lane id=":11_10_0" index="0" speed="5.98" length="14.58" shape="543.44,1504.80 538.20,1505.07 536.33,1505.90 537.84,1507.27 542.73,1509.18"/>
    </edge>
    <edge id=":11_11" function="internal">
        <lane id=":11_11_0" index="0" speed="12.00" length="41.39" shape="543.44,1504.80 526.09,1505.46 514.21,1507.46 507.79,1510.78 506.83,1515.43"/>
    </edge>
    <edge id=":11_12" function="internal">
        <lane id=":11_12_0" index="0" speed="13.89" length="53.99" shape="543.44,1504.80 522.33,1503.85 507.26,1501.00 498.21,1496.25 495.20,1489.60"/>
        <lane id=":11_12_1" index="1" speed="13.89" length="49.17" shape="543.44,1501.60 523.73,1500.85 509.66,1498.60 501.21,1494.85 498.40,1489.60"/>
    </edge>
    <edge id=":11_14" function="internal">
        <lane id=":11_14_0" index="0" speed="3.65" length="4.67" shape="543.44,1501.60 542.24,1500.80 541.84,1500.00 542.24,1499.20 543.44,1498.40"/>
    </edge>
    <edge id=":11_15" function="internal">
        <lane id=":11_15_0" index="0" speed="13.12" length="39.92" shape="504.80,1489.60 507.21,1492.05 514.46,1493.80 526.53,1494.85 543.44,1495.20"/>
    </edge>
    <edge id=":11_16" function="internal">
        <lane id=":11_16_0" index="0" speed="13.89" length="44.76" shape="504.80,1489.60 507.11,1494.88 514.03,1500.41 525.56,1506.19 541.72,1512.22"/>
    </edge>
    <edge id=":11_17" function="internal">
        <lane id=":11_17_0" index="0" speed="13.89" length="25.98" shape="504.80,1489.60 505.15,1496.36 506.15,1502.20 507.74,1507.95 509.87,1514.42"/>
        <lane id=":11_17_1" index="1" speed="13.89" length="25.98" shape="501.60,1489.60 501.97,1496.52 503.03,1502.71 504.68,1508.80 506.83,1515.43"/>
    </edge>
    <edge id=":11_19" function="internal">
        <lane id=":11_19_0" index="0" speed="3.65" length="1.44" shape="501.60,1489.60 500.80,1490.80"/>
    </edge>
    <edge id=":11_23" function="internal">
        <lane id=":11_23_0" index="0" speed="3.65" length="3.23" shape="500.80,1490.80 500.00,1491.20 499.20,1490.80 498.40,1489.60"/>
    </edge>
    <edge id=":12_0" function="internal">
        <lane id=":12_0_0" index="0" speed="13.89" length="34.95" shape="2025.68,1518.21 2018.44,1514.23 2010.48,1509.83 2002.32,1506.27 1994.49,1504.80"/>
        <lane id=":12_0_1" index="1" speed="13.89" length="34.95" shape="2027.11,1515.34 2019.65,1511.31 2011.20,1506.80 2002.55,1503.12 1994.49,1501.60"/>
    </edge>
    <edge id=":12_2" function="internal">
        <lane id=":12_2_0" index="0" speed="7.66" length="23.81" shape="2027.11,1515.34 2022.73,1510.87 2022.24,1505.25 2025.19,1500.44 2031.11,1498.40"/>
    </edge>
    <edge id=":12_3" function="internal">
        <lane id=":12_3_0" index="0" speed="3.65" length="4.67" shape="2027.11,1515.34 2026.40,1514.09 2026.40,1513.20 2027.11,1512.66 2028.54,1512.48"/>
    </edge>
    <edge id=":12_4" function="internal">
        <lane id=":12_4_0" index="0" speed="5.60" length="11.85" shape="2031.11,1504.80 2027.00,1505.10 2025.44,1506.00 2026.43,1507.51 2029.97,1509.62"/>
    </edge>
    <edge id=":12_5" function="internal">
        <lane id=":12_5_0" index="0" speed="13.89" length="36.62" shape="2031.11,1504.80 1994.49,1504.80"/>
        <lane id=":12_5_1" index="1" speed="13.89" length="36.62" shape="2031.11,1501.60 1994.49,1501.60"/>
    </edge>
    <edge id=":12_7" function="internal">
        <lane id=":12_7_0" index="0" speed="3.65" length="1.44" shape="2031.11,1501.60 2029.91,1500.80"/>
    </edge>
    <edge id=":12_12" function="internal">
        <lane id=":12_12_0" index="0" speed="3.65" length="3.23" shape="2029.91,1500.80 2029.51,1500.00 2029.91,1499.20 2031.11,1498.40"/>
    </edge>
    <edge id=":12_8" function="internal">
        <lane id=":12_8_0" index="0" speed="13.89" length="36.62" shape="1994.49,1495.20 2031.11,1495.20"/>
        <lane id=":12_8_1" index="1" speed="13.89" length="36.62" shape="1994.49,1498.40 2031.11,1498.40"/>
    </edge>
    <edge id=":12_10" function="internal">
        <lane id=":12_10_0" index="0" speed="13.89" length="3.84" shape="1994.49,1498.40 1998.26,1499.12"/>
    </edge>
    <edge id=":12_11" function="internal">
        <lane id=":12_11_0" index="0" speed="3.65" length="1.44" shape="1994.49,1498.40 1995.69,1499.20"/>
    </edge>
    <edge id=":12_13" function="internal">
        <lane id=":12_13_0" index="0" speed="13.89" length="33.26" shape="1998.26,1499.12 2002.77,1499.97 2011.91,1503.76 2020.85,1508.40 2028.54,1512.48"/>
    </edge>
    <edge id=":12_14" function="internal">
        <lane id=":12_14_0" index="0" speed="3.65" length="3.23" shape="1995.69,1499.20 1996.09,1500.00 1995.69,1500.80 1994.49,1501.60"/>
    </edge>
    <edge id=":13_0" function="internal">
        <lane id=":13_0_0" index="0" speed="6.51" length="9.03" shape="3995.20,1510.40 3994.85,1507.95 3993.80,1506.20 3992.05,1505.15 3989.60,1504.80"/>
    </edge>
    <edge id=":13_1" function="internal">
        <lane id=":13_1_0" index="0" speed="13.89" length="20.80" shape="3995.20,1510.40 3995.20,1489.60"/>
        <lane id=":13_1_1" index="1" speed="13.89" length="20.80" shape="3998.40,1510.40 3998.40,1489.60"/>
    </edge>
    <edge id=":13_3" function="internal">
        <lane id=":13_3_0" index="0" speed="9.26" length="5.01" shape="3998.40,1510.40 3999.11,1505.44"/>
    </edge>
    <edge id=":13_4" function="internal">
        <lane id=":13_4_0" index="0" speed="3.65" length="1.44" shape="3998.40,1510.40 3999.20,1509.20"/>
    </edge>
    <edge id=":13_20" function="internal">
        <lane id=":13_20_0" index="0" speed="9.26" length="14.34" shape="3999.11,1505.44 3999.15,1505.15 4001.40,1501.40 4005.15,1499.15 4010.40,1498.40"/>
    </edge>
    <edge id=":13_21" function="internal">
        <lane id=":13_21_0" index="0" speed="3.65" length="3.23" shape="3999.20,1509.20 4000.00,1508.80 4000.80,1509.20 4001.60,1510.40"/>
    </edge>
    <edge id=":13_5" function="internal">
        <lane id=":13_5_0" index="0" speed="6.51" length="9.03" shape="4010.40,1504.80 4007.95,1505.15 4006.20,1506.20 4005.15,1507.95 4004.80,1510.40"/>
    </edge>
    <edge id=":13_6" function="internal">
        <lane id=":13_6_0" index="0" speed="13.89" length="20.80" shape="4010.40,1504.80 3989.60,1504.80"/>
        <lane id=":13_6_1" index="1" speed="13.89" length="20.80" shape="4010.40,1501.60 3989.60,1501.60"/>
    </edge>
    <edge id=":13_8" function="internal">
        <lane id=":13_8_0" index="0" speed="9.26" length="19.35" shape="4010.40,1501.60 4005.15,1500.85 4001.40,1498.60 3999.15,1494.85 3998.40,1489.60"/>
    </edge>
    <edge id=":13_9" function="internal">
        <lane id=":13_9_0" index="0" speed="3.65" length="4.67" shape="4010.40,1501.60 4009.20,1500.80 4008.80,1500.00 4009.20,1499.20 4010.40,1498.40"/>
    </edge>
    <edge id=":13_10" function="internal">
        <lane id=":13_10_0" index="0" speed="6.51" length="9.03" shape="4004.80,1489.60 4005.15,1492.05 4006.20,1493.80 4007.95,1494.85 4010.40,1495.20"/>
    </edge>
    <edge id=":13_11" function="internal">
        <lane id=":13_11_0" index="0" speed="13.89" length="20.80" shape="4004.80,1489.60 4004.80,1510.40"/>
        <lane id=":13_11_1" index="1" speed="13.89" length="20.80" shape="4001.60,1489.60 4001.60,1510.40"/>
    </edge>
    <edge id=":13_13" function="internal">
        <lane id=":13_13_0" index="0" speed="9.26" length="5.01" shape="4001.60,1489.60 4000.89,1494.56"/>
    </edge>
    <edge id=":13_14" function="internal">
        <lane id=":13_14_0" index="0" speed="3.65" length="1.44" shape="4001.60,1489.60 4000.80,1490.80"/>
    </edge>
    <edge id=":13_22" function="internal">
        <lane id=":13_22_0" index="0" speed="9.26" length="14.34" shape="4000.89,1494.56 4000.85,1494.85 3998.60,1498.60 3994.85,1500.85 3989.60,1501.60"/>
    </edge>
    <edge id=":13_23" function="internal">
        <lane id=":13_23_0" index="0" speed="3.65" length="3.23" shape="4000.80,1490.80 4000.00,1491.20 3999.20,1490.80 3998.40,1489.60"/>
    </edge>
    <edge id=":13_15" function="internal">
        <lane id=":13_15_0" index="0" speed="6.51" length="9.03" shape="3989.60,1495.20 3992.05,1494.85 3993.80,1493.80 3994.85,1492.05 3995.20,1489.60"/>
    </edge>
    <edge id=":13_16" function="internal">
        <lane id=":13_16_0" index="0" speed="13.89" length="20.80" shape="3989.60,1495.20 4010.40,1495.20"/>
        <lane id=":13_16_1" index="1" speed="13.89" length="20.80" shape="3989.60,1498.40 4010.40,1498.40"/>
    </edge>
    <edge id=":13_18" function="internal">
        <lane id=":13_18_0" index="0" speed="9.26" length="19.35" shape="3989.60,1498.40 3994.85,1499.15 3998.60,1501.40 4000.85,1505.15 4001.60,1510.40"/>
    </edge>
    <edge id=":13_19" function="internal">
        <lane id=":13_19_0" index="0" speed="3.65" length="4.67" shape="3989.60,1498.40 3990.80,1499.20 3991.20,1500.00 3990.80,1500.80 3989.60,1501.60"/>
    </edge>
    <edge id=":14_0" function="internal">
        <lane id=":14_0_0" index="0" speed="6.51" length="9.03" shape="5995.20,1510.40 5994.85,1507.95 5993.80,1506.20 5992.05,1505.15 5989.60,1504.80"/>
    </edge>
    <edge id=":14_1" function="internal">
        <lane id=":14_1_0" index="0" speed="13.89" length="20.80" shape="5995.20,1510.40 5995.20,1489.60"/>
        <lane id=":14_1_1" index="1" speed="13.89" length="20.80" shape="5998.40,1510.40 5998.40,1489.60"/>
    </edge>
    <edge id=":14_3" function="internal">
        <lane id=":14_3_0" index="0" speed="3.65" length="1.44" shape="5998.40,1510.40 5999.20,1509.20"/>
    </edge>
    <edge id=":14_11" function="internal">
        <lane id=":14_11_0" index="0" speed="3.65" length="3.23" shape="5999.20,1509.20 6000.00,1508.80 6000.80,1509.20 6001.60,1510.40"/>
    </edge>
    <edge id=":14_4" function="internal">
        <lane id=":14_4_0" index="0" speed="13.89" length="20.80" shape="6004.80,1489.60 6004.80,1510.40"/>
        <lane id=":14_4_1" index="1" speed="13.89" length="20.80" shape="6001.60,1489.60 6001.60,1510.40"/>
    </edge>
    <edge id=":14_6" function="internal">
        <lane id=":14_6_0" index="0" speed="9.26" length="5.01" shape="6001.60,1489.60 6000.89,1494.56"/>
    </edge>
    <edge id=":14_7" function="internal">
        <lane id=":14_7_0" index="0" speed="3.65" length="1.44" shape="6001.60,1489.60 6000.80,1490.80"/>
    </edge>
    <edge id=":14_12" function="internal">
        <lane id=":14_12_0" index="0" speed="9.26" length="14.34" shape="6000.89,1494.56 6000.85,1494.85 5998.60,1498.60 5994.85,1500.85 5989.60,1501.60"/>
    </edge>
    <edge id=":14_13" function="internal">
        <lane id=":14_13_0" index="0" speed="3.65" length="3.23" shape="6000.80,1490.80 6000.00,1491.20 5999.20,1490.80 5998.40,1489.60"/>
    </edge>
    <edge id=":14_8" function="internal">
        <lane id=":14_8_0" index="0" speed="6.51" length="9.03" shape="5989.60,1495.20 5992.05,1494.85 5993.80,1493.80 5994.85,1492.05 5995.20,1489.60"/>
    </edge>
    <edge id=":14_9" function="internal">
        <lane id=":14_9_0" index="0" speed="9.26" length="19.35" shape="5989.60,1498.40 5994.85,1499.15 5998.60,1501.40 6000.85,1505.15 6001.60,1510.40"/>
    </edge>
    <edge id=":14_10" function="internal">
        <lane id=":14_10_0" index="0" speed="3.65" length="4.67" shape="5989.60,1498.40 5990.80,1499.20 5991.20,1500.00 5990.80,1500.80 5989.60,1501.60"/>
    </edge>
    <edge id=":15_0" function="internal">
        <lane id=":15_0_0" index="0" speed="13.89" length="20.80" shape="495.20,1010.40 495.20,989.60"/>
        <lane id=":15_0_1" index="1" speed="13.89" length="20.80" shape="498.40,1010.40 498.40,989.60"/>
    </edge>
    <edge id=":15_2" function="internal">
        <lane id=":15_2_0" index="0" speed="9.26" length="5.01" shape="498.40,1010.40 499.11,1005.44"/>
    </edge>
    <edge id=":15_3" function="internal">
        <lane id=":15_3_0" index="0" speed="3.65" length="1.44" shape="498.40,1010.40 499.20,1009.20"/>
    </edge>
    <edge id=":15_11" function="internal">
        <lane id=":15_11_0" index="0" speed="9.26" length="14.34" shape="499.11,1005.44 499.15,1005.15 501.40,1001.40 505.15,999.15 510.40,998.40"/>
    </edge>
    <edge id=":15_12" function="internal">
        <lane id=":15_12_0" index="0" speed="3.65" length="3.23" shape="499.20,1009.20 500.00,1008.80 500.80,1009.20 501.60,1010.40"/>
    </edge>
    <edge id=":15_4" function="internal">
        <lane id=":15_4_0" index="0" speed="6.51" length="9.03" shape="510.40,1004.80 507.95,1005.15 506.20,1006.20 505.15,1007.95 504.80,1010.40"/>
    </edge>
    <edge id=":15_5" function="internal">
        <lane id=":15_5_0" index="0" speed="9.26" length="19.35" shape="510.40,1001.60 505.15,1000.85 501.40,998.60 499.15,994.85 498.40,989.60"/>
    </edge>
    <edge id=":15_6" function="internal">
        <lane id=":15_6_0" index="0" speed="3.65" length="4.67" shape="510.40,1001.60 509.20,1000.80 508.80,1000.00 509.20,999.20 510.40,998.40"/>
    </edge>
    <edge id=":15_7" function="internal">
        <lane id=":15_7_0" index="0" speed="6.51" length="9.03" shape="504.80,989.60 505.15,992.05 506.20,993.80 507.95,994.85 510.40,995.20"/>
    </edge>
    <edge id=":15_8" function="internal">
        <lane id=":15_8_0" index="0" speed="13.89" length="20.80" shape="504.80,989.60 504.80,1010.40"/>
        <lane id=":15_8_1" index="1" speed="13.89" length="20.80" shape="501.60,989.60 501.60,1010.40"/>
    </edge>
    <edge id=":15_10" function="internal">
        <lane id=":15_10_0" index="0" speed="3.65" length="1.44" shape="501.60,989.60 500.80,990.80"/>
    </edge>
    <edge id=":15_13" function="internal">
        <lane id=":15_13_0" index="0" speed="3.65" length="3.23" shape="500.80,990.80 500.00,991.20 499.20,990.80 498.40,989.60"/>
    </edge>
    <edge id=":16_0" function="internal">
        <lane id=":16_0_0" index="0" speed="6.51" length="9.03" shape="1995.20,1010.40 1994.85,1007.95 1993.80,1006.20 1992.05,1005.15 1989.60,1004.80"/>
    </edge>
    <edge id=":16_1" function="internal">
        <lane id=":16_1_0" index="0" speed="13.89" length="32.13" shape="1995.20,1010.40 1996.57,1002.87 2000.13,995.53 2005.01,988.73 2010.36,982.85"/>
        <lane id=":16_1_1" index="1" speed="13.89" length="29.67" shape="1998.40,1010.40 1999.29,1004.67 2001.96,998.55 2006.40,992.03 2012.62,985.11"/>
    </edge>
    <edge id=":16_3" function="internal">
        <lane id=":16_3_0" index="0" speed="10.87" length="27.05" shape="1998.40,1010.40 1999.72,1005.15 2003.66,1001.40 2010.24,999.15 2019.45,998.40"/>
    </edge>
    <edge id=":16_4" function="internal">
        <lane id=":16_4_0" index="0" speed="3.65" length="4.67" shape="1998.40,1010.40 1999.20,1009.20 2000.00,1008.80 2000.80,1009.20 2001.60,1010.40"/>
    </edge>
    <edge id=":16_5" function="internal">
        <lane id=":16_5_0" index="0" speed="8.71" length="16.99" shape="2019.45,1004.80 2013.04,1005.15 2008.46,1006.20 2005.72,1007.95 2004.80,1010.40"/>
    </edge>
    <edge id=":16_6" function="internal">
        <lane id=":16_6_0" index="0" speed="13.89" length="29.85" shape="2019.45,1004.80 1989.60,1004.80"/>
        <lane id=":16_6_1" index="1" speed="13.89" length="29.85" shape="2019.45,1001.60 1989.60,1001.60"/>
    </edge>
    <edge id=":16_8" function="internal">
        <lane id=":16_8_0" index="0" speed="8.14" length="2.95" shape="2019.45,1001.60 2016.60,1000.87"/>
    </edge>
    <edge id=":16_9" function="internal">
        <lane id=":16_9_0" index="0" speed="3.65" length="1.44" shape="2019.45,1001.60 2018.25,1000.80"/>
    </edge>
    <edge id=":16_20" function="internal">
        <lane id=":16_20_0" index="0" speed="8.14" length="20.62" shape="2016.60,1000.87 2013.22,1000.01 2009.69,995.99 2009.34,990.65 2012.62,985.11"/>
    </edge>
    <edge id=":16_21" function="internal">
        <lane id=":16_21_0" index="0" speed="3.65" length="3.23" shape="2018.25,1000.80 2017.85,1000.00 2018.25,999.20 2019.45,998.40"/>
    </edge>
    <edge id=":16_10" function="internal">
        <lane id=":16_10_0" index="0" speed="5.47" length="9.74" shape="2017.15,989.64 2015.21,992.07 2014.94,993.81 2016.36,994.85 2019.45,995.20"/>
    </edge>
    <edge id=":16_11" function="internal">
        <lane id=":16_11_0" index="0" speed="13.89" length="24.66" shape="2017.15,989.64 2011.75,995.57 2007.89,1001.00 2005.57,1005.95 2004.80,1010.40"/>
        <lane id=":16_11_1" index="1" speed="13.89" length="27.36" shape="2014.89,987.38 2009.83,992.55 2005.59,997.79 2002.68,1003.58 2001.60,1010.40"/>
    </edge>
    <edge id=":16_13" function="internal">
        <lane id=":16_13_0" index="0" speed="13.89" length="29.67" shape="2014.89,987.38 2007.97,993.60 2001.45,998.04 1995.33,1000.71 1989.60,1001.60"/>
    </edge>
    <edge id=":16_14" function="internal">
        <lane id=":16_14_0" index="0" speed="3.65" length="4.67" shape="2014.89,987.38 2013.47,987.66 2012.62,987.38 2012.34,986.53 2012.62,985.11"/>
    </edge>
    <edge id=":16_15" function="internal">
        <lane id=":16_15_0" index="0" speed="13.89" length="24.66" shape="1989.60,995.20 1994.05,994.43 1999.00,992.11 2004.43,988.25 2010.36,982.85"/>
    </edge>
    <edge id=":16_16" function="internal">
        <lane id=":16_16_0" index="0" speed="13.89" length="29.85" shape="1989.60,995.20 2019.45,995.20"/>
        <lane id=":16_16_1" index="1" speed="13.89" length="29.85" shape="1989.60,998.40 2019.45,998.40"/>
    </edge>
    <edge id=":16_18" function="internal">
        <lane id=":16_18_0" index="0" speed="9.26" length="5.01" shape="1989.60,998.40 1994.56,999.11"/>
    </edge>
    <edge id=":16_19" function="internal">
        <lane id=":16_19_0" index="0" speed="3.65" length="1.44" shape="1989.60,998.40 1990.80,999.20"/>
    </edge>
    <edge id=":16_22" function="internal">
        <lane id=":16_22_0" index="0" speed="9.26" length="14.34" shape="1994.56,999.11 1994.85,999.15 1998.60,1001.40 2000.85,1005.15 2001.60,1010.40"/>
    </edge>
    <edge id=":16_23" function="internal">
        <lane id=":16_23_0" index="0" speed="3.65" length="3.23" shape="1990.80,999.20 1991.20,1000.00 1990.80,1000.80 1989.60,1001.60"/>
    </edge>
    <edge id=":17_0" function="internal">
        <lane id=":17_0_0" index="0" speed="6.51" length="9.03" shape="3995.20,1010.40 3994.85,1007.95 3993.80,1006.20 3992.05,1005.15 3989.60,1004.80"/>
    </edge>
    <edge id=":17_1" function="internal">
        <lane id=":17_1_0" index="0" speed="13.89" length="20.80" shape="3995.20,1010.40 3995.20,989.60"/>
        <lane id=":17_1_1" index="1" speed="13.89" length="20.80" shape="3998.40,1010.40 3998.40,989.60"/>
    </edge>
    <edge id=":17_3" function="internal">
        <lane id=":17_3_0" index="0" speed="9.26" length="5.01" shape="3998.40,1010.40 3999.11,1005.44"/>
    </edge>
    <edge id=":17_4" function="internal">
        <lane id=":17_4_0" index="0" speed="3.65" length="1.44" shape="3998.40,1010.40 3999.20,1009.20"/>
    </edge>
    <edge id=":17_20" function="internal">
        <lane id=":17_20_0" index="0" speed="9.26" length="14.34" shape="3999.11,1005.44 3999.15,1005.15 4001.40,1001.40 4005.15,999.15 4010.40,998.40"/>
    </edge>
    <edge id=":17_21" function="internal">
        <lane id=":17_21_0" index="0" speed="3.65" length="3.23" shape="3999.20,1009.20 4000.00,1008.80 4000.80,1009.20 4001.60,1010.40"/>
    </edge>
    <edge id=":17_5" function="internal">
        <lane id=":17_5_0" index="0" speed="6.51" length="9.03" shape="4010.40,1004.80 4007.95,1005.15 4006.20,1006.20 4005.15,1007.95 4004.80,1010.40"/>
    </edge>
    <edge id=":17_6" function="internal">
        <lane id=":17_6_0" index="0" speed="13.89" length="20.80" shape="4010.40,1004.80 3989.60,1004.80"/>
        <lane id=":17_6_1" index="1" speed="13.89" length="20.80" shape="4010.40,1001.60 3989.60,1001.60"/>
    </edge>
    <edge id=":17_8" function="internal">
        <lane id=":17_8_0" index="0" speed="9.26" length="19.35" shape="4010.40,1001.60 4005.15,1000.85 4001.40,998.60 3999.15,994.85 3998.40,989.60"/>
    </edge>
    <edge id=":17_9" function="internal">
        <lane id=":17_9_0" index="0" speed="3.65" length="4.67" shape="4010.40,1001.60 4009.20,1000.80 4008.80,1000.00 4009.20,999.20 4010.40,998.40"/>
    </edge>
    <edge id=":17_10" function="internal">
        <lane id=":17_10_0" index="0" speed="6.51" length="9.03" shape="4004.80,989.60 4005.15,992.05 4006.20,993.80 4007.95,994.85 4010.40,995.20"/>
    </edge>
    <edge id=":17_11" function="internal">
        <lane id=":17_11_0" index="0" speed="13.89" length="20.80" shape="4004.80,989.60 4004.80,1010.40"/>
        <lane id=":17_11_1" index="1" speed="13.89" length="20.80" shape="4001.60,989.60 4001.60,1010.40"/>
    </edge>
    <edge id=":17_13" function="internal">
        <lane id=":17_13_0" index="0" speed="9.26" length="5.01" shape="4001.60,989.60 4000.89,994.56"/>
    </edge>
    <edge id=":17_14" function="internal">
        <lane id=":17_14_0" index="0" speed="3.65" length="1.44" shape="4001.60,989.60 4000.80,990.80"/>
    </edge>
    <edge id=":17_22" function="internal">
        <lane id=":17_22_0" index="0" speed="9.26" length="14.34" shape="4000.89,994.56 4000.85,994.85 3998.60,998.60 3994.85,1000.85 3989.60,1001.60"/>
    </edge>
    <edge id=":17_23" function="internal">
        <lane id=":17_23_0" index="0" speed="3.65" length="3.23" shape="4000.80,990.80 4000.00,991.20 3999.20,990.80 3998.40,989.60"/>
    </edge>
    <edge id=":17_15" function="internal">
        <lane id=":17_15_0" index="0" speed="6.51" length="9.03" shape="3989.60,995.20 3992.05,994.85 3993.80,993.80 3994.85,992.05 3995.20,989.60"/>
    </edge>
    <edge id=":17_16" function="internal">
        <lane id=":17_16_0" index="0" speed="13.89" length="20.80" shape="3989.60,995.20 4010.40,995.20"/>
        <lane id=":17_16_1" index="1" speed="13.89" length="20.80" shape="3989.60,998.40 4010.40,998.40"/>
    </edge>
    <edge id=":17_18" function="internal">
        <lane id=":17_18_0" index="0" speed="9.26" length="19.35" shape="3989.60,998.40 3994.85,999.15 3998.60,1001.40 4000.85,1005.15 4001.60,1010.40"/>
    </edge>
    <edge id=":17_19" function="internal">
        <lane id=":17_19_0" index="0" speed="3.65" length="4.67" shape="3989.60,998.40 3990.80,999.20 3991.20,1000.00 3990.80,1000.80 3989.60,1001.60"/>
    </edge>
    <edge id=":18_0" function="internal">
        <lane id=":18_0_0" index="0" speed="3.90" length="2.58" shape="5995.20,1006.40 5995.10,1005.70 5994.80,1005.20 5994.30,1004.90 5993.60,1004.80"/>
        <lane id=":18_0_1" index="1" speed="6.08" length="7.74" shape="5998.40,1006.40 5998.10,1004.30 5997.20,1002.80 5995.70,1001.90 5993.60,1001.60"/>
    </edge>
    <edge id=":18_2" function="internal">
        <lane id=":18_2_0" index="0" speed="8.96" length="18.06" shape="5993.60,995.20 5998.50,995.90 6002.00,998.00 6004.10,1001.50 6004.80,1006.40"/>
        <lane id=":18_2_1" index="1" speed="7.66" length="12.90" shape="5993.60,998.40 5997.10,998.90 5999.60,1000.40 6001.10,1002.90 6001.60,1006.40"/>
    </edge>
    <edge id=":19_0" function="internal">
        <lane id=":19_0_0" index="0" speed="13.89" length="20.80" shape="495.20,510.40 495.20,489.60"/>
        <lane id=":19_0_1" index="1" speed="13.89" length="20.80" shape="498.40,510.40 498.40,489.60"/>
    </edge>
    <edge id=":19_2" function="internal">
        <lane id=":19_2_0" index="0" speed="9.26" length="5.01" shape="498.40,510.40 499.11,505.44"/>
    </edge>
    <edge id=":19_3" function="internal">
        <lane id=":19_3_0" index="0" speed="3.65" length="1.44" shape="498.40,510.40 499.20,509.20"/>
    </edge>
    <edge id=":19_11" function="internal">
        <lane id=":19_11_0" index="0" speed="9.26" length="14.34" shape="499.11,505.44 499.15,505.15 501.40,501.40 505.15,499.15 510.40,498.40"/>
    </edge>
    <edge id=":19_12" function="internal">
        <lane id=":19_12_0" index="0" speed="3.65" length="3.23" shape="499.20,509.20 500.00,508.80 500.80,509.20 501.60,510.40"/>
    </edge>
    <edge id=":19_4" function="internal">
        <lane id=":19_4_0" index="0" speed="6.51" length="9.03" shape="510.40,504.80 507.95,505.15 506.20,506.20 505.15,507.95 504.80,510.40"/>
    </edge>
    <edge id=":19_5" function="internal">
        <lane id=":19_5_0" index="0" speed="9.26" length="19.35" shape="510.40,501.60 505.15,500.85 501.40,498.60 499.15,494.85 498.40,489.60"/>
    </edge>
    <edge id=":19_6" function="internal">
        <lane id=":19_6_0" index="0" speed="3.65" length="4.67" shape="510.40,501.60 509.20,500.80 508.80,500.00 509.20,499.20 510.40,498.40"/>
    </edge>
    <edge id=":19_7" function="internal">
        <lane id=":19_7_0" index="0" speed="6.51" length="9.03" shape="504.80,489.60 505.15,492.05 506.20,493.80 507.95,494.85 510.40,495.20"/>
    </edge>
    <edge id=":19_8" function="internal">
        <lane id=":19_8_0" index="0" speed="13.89" length="20.80" shape="504.80,489.60 504.80,510.40"/>
        <lane id=":19_8_1" index="1" speed="13.89" length="20.80" shape="501.60,489.60 501.60,510.40"/>
    </edge>
    <edge id=":19_10" function="internal">
        <lane id=":19_10_0" index="0" speed="3.65" length="1.44" shape="501.60,489.60 500.80,490.80"/>
    </edge>
    <edge id=":19_13" function="internal">