<?xml version="1.0" ?>
<configuration>
    <input>
        <net-file value="thessaloniki.net.xml"/>
        <route-files value="thessaloniki.rou.xml"/>
    </input>
    <time>
        <begin value="0"/>
        <end value="7200"/>
    </time>
    <processing>
        <ignore-route-errors value="true"/>
    </processing>
</configuration>
