<?xml version="1.0" encoding="UTF-8"?>

<!-- generated on 2026-04-20 15:34:27.667875 by Eclipse SUMO randomTrips.py v1.26.0
<configuration>
    <net-file value="/Users/kgrizos/Documents/GitHub/sumo-accident-simulation/thessaloniki_network/thessaloniki.net.xml"/>
    <output-trip-file value="/Users/kgrizos/Documents/GitHub/sumo-accident-simulation/thessaloniki_network/thessaloniki.rou.xml"/>
    <remove-loops value="True"/>
    <end value="7200.0"/>
    <period value="1.0"/>
</configuration>
-->

<routes xmlns:xsi="http://www.w3.org/2001/XMLSchema-instance" xsi:noNamespaceSchemaLocation="http://sumo.dlr.de/xsd/routes_file.xsd">
    <trip id="0" depart="0.00" from="180577053#5" to="-1191501891#2"/>
    <trip id="1" depart="1.00" from="-877645156#3" to="-410318754"/>
    <trip id="2" depart="2.00" from="21416682#0" to="200392015#2"/>
    <trip id="3" depart="3.00" from="564753376" to="-16375356"/>
    <trip id="4" depart="4.00" from="14785963#1" to="-1270812911#1"/>
    <trip id="5" depart="5.00" from="-333132701#1" to="16145392"/>
    <trip id="6" depart="6.00" from="-124121072#4" to="-258849829#0"/>
    <trip id="7" depart="7.00" from="181777526#0" to="16381178"/>
    <trip id="8" depart="8.00" from="-339583627#2" to="17479924#1"/>
    <trip id="9" depart="9.00" from="311169045#0" to="-104217228#2"/>
    <trip id="10" depart="10.00" from="306262666#0" to="20421624#1"/>
    <trip id="11" depart="11.00" from="1139264471#1" to="-19890747#1"/>
    <trip id="12" depart="12.00" from="691550492#9" to="1200674947"/>
    <trip id="13" depart="13.00" from="-16384923#0" to="-16959308#4"/>
    <trip id="14" depart="14.00" from="411651872#2" to="176657208#2"/>
    <trip id="15" depart="15.00" from="306262667#2" to="214717616#1"/>
    <trip id="16" depart="16.00" from="16157697#2" to="833648569#5"/>
    <trip id="17" depart="17.00" from="1363163573#0" to="163957803#0"/>
    <trip id="18" depart="18.00" from="34326277#6" to="179652776#1"/>
    <trip id="19" depart="19.00" from="46686085#1" to="174019381#1"/>
    <trip id="20" depart="20.00" from="20395154#15" to="-1414076859#0"/>
    <trip id="21" depart="21.00" from="-381826238#1" to="104214885"/>
    <trip id="22" depart="22.00" from="-16150783#5" to="-561834175#0"/>
    <trip id="23" depart="23.00" from="-16961958#1" to="1015950555"/>
    <trip id="24" depart="24.00" from="180371460#0" to="133659475#1"/>
    <trip id="25" depart="25.00" from="132461247#3" to="-311461067#0"/>
    <trip id="26" depart="26.00" from="-704378433" to="681872485#0"/>
    <trip id="27" depart="27.00" from="181777493#0" to="176726720#1"/>
    <trip id="28" depart="28.00" from="-21319046" to="214694704"/>
    <trip id="29" depart="29.00" from="-20383295#2" to="141039206#6"/>
    <trip id="30" depart="30.00" from="961563487#1" to="181777505#0"/>
    <trip id="31" depart="31.00" from="16382501#2" to="200524851#0"/>
    <trip id="32" depart="32.00" from="39350712#2" to="258871949#0"/>
    <trip id="33" depart="33.00" from="-39351515#1" to="-1307144045#7"/>
    <trip id="34" depart="34.00" from="110306605#0" to="-895754320"/>
    <trip id="35" depart="35.00" from="-27872194#1" to="682953630#1"/>
    <trip id="36" depart="36.00" from="484233202#0" to="1119103550#3"/>
    <trip id="37" depart="37.00" from="181985106#0" to="14290961#9"/>
    <trip id="38" depart="38.00" from="-687344243#1" to="-622454426#0"/>
    <trip id="39" depart="39.00" from="16385819#0" to="-846850912#0"/>
    <trip id="40" depart="40.00" from="173905481#2" to="595019960#3"/>
    <trip id="41" depart="41.00" from="14156737#5" to="-359150387#6"/>
    <trip id="42" depart="42.00" from="978805674#0" to="16147923#5"/>
    <trip id="43" depart="43.00" from="-16380159#2" to="-14158208#4"/>
    <trip id="44" depart="44.00" from="-173822295#9" to="180382025#6"/>
    <trip id="45" depart="45.00" from="26193436#4" to="14886850#4"/>
    <trip id="46" depart="46.00" from="-15695230#0" to="14126665"/>
    <trip id="47" depart="47.00" from="978569775" to="161744498#0"/>
    <trip id="48" depart="48.00" from="79314043#1" to="46817301#5"/>
    <trip id="49" depart="49.00" from="-1108356385#1" to="213517818"/>
    <trip id="50" depart="50.00" from="200391985#3" to="16376180#3"/>
    <trip id="51" depart="51.00" from="-701078044" to="181777522#2"/>
    <trip id="52" depart="52.00" from="-173908941#3" to="14890025#0"/>
    <trip id="53" depart="53.00" from="14890226#1" to="691547016#1"/>
    <trip id="54" depart="54.00" from="479887721#1" to="-846850921"/>
    <trip id="55" depart="55.00" from="15918864#4" to="-217763588#1"/>
    <trip id="56" depart="56.00" from="614575769#4" to="479887716#0"/>
    <trip id="57" depart="57.00" from="104081820#9" to="18146238#0"/>
    <trip id="58" depart="58.00" from="176448779#3" to="-188337305#6"/>
    <trip id="59" depart="59.00" from="23199775#3" to="16378952#2"/>
    <trip id="60" depart="60.00" from="257198946#1" to="161914129"/>
    <trip id="61" depart="61.00" from="-1014113585" to="113342129#0"/>
    <trip id="62" depart="62.00" from="-113342165#1" to="681830751#0"/>
    <trip id="63" depart="63.00" from="487463674" to="37043360#1"/>
    <trip id="64" depart="64.00" from="107862468#0" to="-14889986#8"/>
    <trip id="65" depart="65.00" from="487463661#1" to="687326043"/>
    <trip id="66" depart="66.00" from="-161765234#2" to="159103261#5"/>
    <trip id="67" depart="67.00" from="-15742562#3" to="23207260#0"/>
    <trip id="68" depart="68.00" from="23207080#0" to="-179575188#2"/>
    <trip id="69" depart="69.00" from="15697215#2" to="16385354#7"/>
    <trip id="70" depart="70.00" from="-687344244#2" to="484233203#1"/>
    <trip id="71" depart="71.00" from="14792921#4" to="-319245977#7"/>
    <trip id="72" depart="72.00" from="161744491#0" to="214718494#1"/>
    <trip id="73" depart="73.00" from="-258848013#1" to="1115250747#3"/>
    <trip id="74" depart="74.00" from="978517820#0" to="183057544#2"/>
    <trip id="75" depart="75.00" from="14889671#4" to="16154829#1"/>
    <trip id="76" depart="76.00" from="-176033839#0" to="-434860622"/>
    <trip id="77" depart="77.00" from="113342191#0" to="17479423#0"/>
    <trip id="78" depart="78.00" from="-412034350#3" to="-372687988#1"/>
    <trip id="79" depart="79.00" from="-159103260#3" to="180577083"/>
    <trip id="80" depart="80.00" from="-39351515#0" to="612768268"/>
    <trip id="81" depart="81.00" from="44676634#2" to="-159103260#3"/>
    <trip id="82" depart="82.00" from="-561060779" to="19791060#2"/>
    <trip id="83" depart="83.00" from="-306283492#2" to="-179936287#0"/>
    <trip id="84" depart="84.00" from="681859728#0" to="173773720"/>
    <trip id="85" depart="85.00" from="15696873" to="26143075#1"/>
    <trip id="86" depart="86.00" from="306262667#6" to="-23207225#1"/>
    <trip id="87" depart="87.00" from="-16941153#7" to="14889945#8"/>
    <trip id="88" depart="88.00" from="14798183" to="15699159#1"/>
    <trip id="89" depart="89.00" from="213520157#0" to="200391978#0"/>
    <trip id="90" depart="90.00" from="900172757#1" to="-16961899#1"/>
    <trip id="91" depart="91.00" from="1420114098#0" to="124121065"/>
    <trip id="92" depart="92.00" from="46686085#1" to="-638061794#0"/>
    <trip id="93" depart="93.00" from="-23199737#1" to="15690234#0"/>
    <trip id="94" depart="94.00" from="14785963#1" to="1015956085#1"/>
    <trip id="95" depart="95.00" from="-595062531#1" to="681578743#0"/>
    <trip id="96" depart="96.00" from="14889953#5" to="4688550#2"/>
    <trip id="97" depart="97.00" from="16379202#2" to="-144716799"/>
    <trip id="98" depart="98.00" from="978874211#1" to="378283005#1"/>
    <trip id="99" depart="99.00" from="74333815#2" to="681808254#2"/>
    <trip id="100" depart="100.00" from="411651878#1" to="-206892517#3"/>
    <trip id="101" depart="101.00" from="15704662#0" to="-335683249#1"/>
    <trip id="102" depart="102.00" from="14159730#2" to="-14890181#4"/>
    <trip id="103" depart="103.00" from="-687344244#3" to="26140689#3"/>
    <trip id="104" depart="104.00" from="14890258#1" to="14887286#2"/>
    <trip id="105" depart="105.00" from="691550493#0" to="978530104#0"/>
    <trip id="106" depart="106.00" from="16381595#1" to="213508508#3"/>
    <trip id="107" depart="107.00" from="-18679158#0" to="107920815#0"/>
    <trip id="108" depart="108.00" from="74333809#0" to="174486716#0"/>
    <trip id="109" depart="109.00" from="162408741" to="23199271#1"/>
    <trip id="110" depart="110.00" from="-14886721" to="174512304#1"/>
    <trip id="111" depart="111.00" from="15919096#3" to="439002518"/>
    <trip id="112" depart="112.00" from="-194743415#0" to="723498517#0"/>
    <trip id="113" depart="113.00" from="-16151151" to="-23199722#1"/>
    <trip id="114" depart="114.00" from="17478417" to="200392011#13"/>
    <trip id="115" depart="115.00" from="-4825719#2" to="-176033847#1"/>
    <trip id="116" depart="116.00" from="563698819#1" to="-614567466#0"/>
    <trip id="117" depart="117.00" from="17478290#1" to="179747716#0"/>
    <trip id="118" depart="118.00" from="146739574#0" to="17451161#0"/>
    <trip id="119" depart="119.00" from="16148735" to="681872435"/>
    <trip id="120" depart="120.00" from="-259657652#1" to="213504587#1"/>
    <trip id="121" depart="121.00" from="-561060787#1" to="14291173#1"/>
    <trip id="122" depart="122.00" from="189088658" to="1096847864#1-AddedOffRampEdge"/>
    <trip id="123" depart="123.00" from="110347941#0" to="23199721#1"/>
    <trip id="124" depart="124.00" from="-159163980#0" to="15695466#7"/>
    <trip id="125" depart="125.00" from="978805678#0" to="978569775"/>
    <trip id="126" depart="126.00" from="-159189047#4" to="-333132701#3"/>
    <trip id="127" depart="127.00" from="-687344244#3" to="681859724#0"/>
    <trip id="128" depart="128.00" from="500805748#1" to="552413741#0"/>
    <trip id="129" depart="129.00" from="132461240#4" to="-200392015#9"/>
    <trip id="130" depart="130.00" from="357014255#0" to="206881243#7"/>
    <trip id="131" depart="131.00" from="176614979#2" to="957797639"/>
    <trip id="132" depart="132.00" from="181790648#1" to="-107736217#0"/>
    <trip id="133" depart="133.00" from="333132701#1" to="108572199#2"/>
    <trip id="134" depart="134.00" from="18676451#0" to="682645516#1"/>
    <trip id="135" depart="135.00" from="-179936990" to="-17480448#2"/>
    <trip id="136" depart="136.00" from="-173758769#9" to="164697902"/>
    <trip id="137" depart="137.00" from="-846007135" to="176657210#6"/>
    <trip id="138" depart="138.00" from="21318640#3" to="-26521703#1"/>
    <trip id="139" depart="139.00" from="179936992#0" to="-877645153#13"/>
    <trip id="140" depart="140.00" from="15706837#6" to="612755296#2"/>
    <trip id="141" depart="141.00" from="394642763" to="-16385091"/>
    <trip id="142" depart="142.00" from="14798183" to="1014639814"/>
    <trip id="143" depart="143.00" from="-104070618#6" to="257198165#4"/>
    <trip id="144" depart="144.00" from="180382027#1" to="-833648571#8"/>
    <trip id="145" depart="145.00" from="21655334#2" to="16387809#0"/>
    <trip id="146" depart="146.00" from="14804056#3" to="-110166185#0"/>
    <trip id="147" depart="147.00" from="-160289148" to="561524432"/>
    <trip id="148" depart="148.00" from="609580680#4" to="16381595#1"/>
    <trip id="149" depart="149.00" from="359150376#2" to="17450829#0"/>
    <trip id="150" depart="150.00" from="-18675841#0" to="-179438256#4"/>
    <trip id="151" depart="151.00" from="107920822#0" to="608717059"/>
    <trip id="152" depart="152.00" from="26564678#7" to="46817301#4"/>
    <trip id="153" depart="153.00" from="594892802#0" to="-312143732#1"/>
    <trip id="154" depart="154.00" from="-594892803" to="-173758769#0"/>
    <trip id="155" depart="155.00" from="257725312#1" to="562244980"/>
    <trip id="156" depart="156.00" from="14291173#6" to="179747721#5"/>
    <trip id="157" depart="157.00" from="-18679101#0" to="681859671#1"/>
    <trip id="158" depart="158.00" from="46690892#0" to="863006534#1"/>
    <trip id="159" depart="159.00" from="311169056#1" to="561037422"/>
    <trip id="160" depart="160.00" from="-116783987" to="217763588#0"/>
    <trip id="161" depart="161.00" from="112283286#0" to="681859683"/>
    <trip id="162" depart="162.00" from="28094003" to="469693216#1"/>
    <trip id="163" depart="163.00" from="311169056#1" to="-893181036#1"/>
    <trip id="164" depart="164.00" from="25967060#0" to="-173822305#2"/>
    <trip id="165" depart="165.00" from="477977956#3" to="46688485#6"/>
    <trip id="166" depart="166.00" from="-34324953#6" to="339048206#9"/>
    <trip id="167" depart="167.00" from="15690978#1" to="1103594234"/>
    <trip id="168" depart="168.00" from="26564113#0" to="-477833658"/>
    <trip id="169" depart="169.00" from="-116783978#1" to="-257159658#19"/>
    <trip id="170" depart="170.00" from="112282651" to="469693217#2"/>
    <trip id="171" depart="171.00" from="737000408#1" to="1015956092"/>
    <trip id="172" depart="172.00" from="180577124#5" to="14302490#0"/>
    <trip id="173" depart="173.00" from="893139688" to="16376094#3"/>
    <trip id="174" depart="174.00" from="682639157#2" to="-17480448#1"/>
    <trip id="175" depart="175.00" from="7853485#2" to="-217763588#0"/>
    <trip id="176" depart="176.00" from="724285656#5" to="-886053687"/>
    <trip id="177" depart="177.00" from="-173773721#0" to="14890017#8"/>
    <trip id="178" depart="178.00" from="213518414#0" to="1116214074#2"/>
    <trip id="179" depart="179.00" from="176033847#7" to="16148665#1"/>
    <trip id="180" depart="180.00" from="138942895#1" to="173908941#2"/>
    <trip id="181" depart="181.00" from="-614521943" to="207094500#1"/>
    <trip id="182" depart="182.00" from="-1015950554#2" to="681600623"/>
    <trip id="183" depart="183.00" from="161722528#0" to="213509637#2"/>
    <trip id="184" depart="184.00" from="216597260" to="19881316#0"/>
    <trip id="185" depart="185.00" from="131604130#4" to="-158593243"/>
    <trip id="186" depart="186.00" from="18676750#6" to="1146042174#4"/>
    <trip id="187" depart="187.00" from="110166191" to="41589764#0"/>
    <trip id="188" depart="188.00" from="213487469#1" to="1099498670#0"/>
    <trip id="189" depart="189.00" from="107932201#1" to="1467042893#1"/>
    <trip id="190" depart="190.00" from="14159918#6" to="107736223#5"/>
    <trip id="191" depart="191.00" from="-177862130" to="14886191#0"/>
    <trip id="192" depart="192.00" from="682642601#2" to="200504294"/>
    <trip id="193" depart="193.00" from="609570409#1" to="178767725#1"/>
    <trip id="194" depart="194.00" from="104214886#2" to="16384967#1"/>
    <trip id="195" depart="195.00" from="-1011126613" to="104081820#5"/>
    <trip id="196" depart="196.00" from="14885583#0" to="17449698#0"/>
    <trip id="197" depart="197.00" from="181806206" to="15697369#1"/>
    <trip id="198" depart="198.00" from="14889953#10" to="-335683247"/>
    <trip id="199" depart="199.00" from="15696933#1" to="609580680#4"/>
    <trip id="200" depart="200.00" from="26564678#4" to="-213501984#3"/>
    <trip id="201" depart="201.00" from="-161744491#3" to="16154134#0"/>
    <trip id="202" depart="202.00" from="179936272#1" to="116783981"/>
    <trip id="203" depart="203.00" from="335683258#2" to="23199400#1"/>
    <trip id="204" depart="204.00" from="194743409" to="-432848777"/>
    <trip id="205" depart="205.00" from="-257198659#0" to="-116783985#0"/>
    <trip id="206" depart="206.00" from="-564794633" to="15704732#3"/>
    <trip id="207" depart="207.00" from="412046197#6" to="-159189047#2"/>
    <trip id="208" depart="208.00" from="14516195#1" to="180382056"/>
    <trip id="209" depart="209.00" from="-23207523" to="20395154#0"/>
    <trip id="210" depart="210.00" from="158699968#1" to="-610550771#1"/>
    <trip id="211" depart="211.00" from="182512255#1" to="-104214892#1"/>
    <trip id="212" depart="212.00" from="229133748" to="257193257#0"/>
    <trip id="213" depart="213.00" from="-173758769#3" to="14889528#0"/>
    <trip id="214" depart="214.00" from="-213518414#3" to="701078045"/>
    <trip id="215" depart="215.00" from="16146957#0" to="-144395571#1"/>
    <trip id="216" depart="216.00" from="-594892800#0" to="420475208#0"/>
    <trip id="217" depart="217.00" from="14890320#4" to="306262667#2"/>
    <trip id="218" depart="218.00" from="18677892#2" to="957797640#6"/>
    <trip id="219" depart="219.00" from="17478472#1" to="687344236"/>
    <trip id="220" depart="220.00" from="56421955" to="178152663#0"/>
    <trip id="221" depart="221.00" from="213487314#2" to="160289280#2"/>
    <trip id="222" depart="222.00" from="34408788#0" to="16384967#1"/>
    <trip id="223" depart="223.00" from="594512795#3" to="22102746"/>
    <trip id="224" depart="224.00" from="15697182#5" to="-724300986"/>
    <trip id="225" depart="225.00" from="-589087286" to="18145853#1"/>
    <trip id="226" depart="226.00" from="23207080#0" to="16156146#0"/>
    <trip id="227" depart="227.00" from="179575188#1" to="1012626911"/>
    <trip id="228" depart="228.00" from="-160289280#1" to="104079781#4"/>
    <trip id="229" depart="229.00" from="-833648571#6" to="112282671#3"/>
    <trip id="230" depart="230.00" from="161765227#3-AddedOffRampEdge" to="-181777510#1"/>
    <trip id="231" depart="231.00" from="-44398547#0" to="20388978#0"/>
    <trip id="232" depart="232.00" from="20421746#4" to="-15695664#2"/>
    <trip id="233" depart="233.00" from="14293311#3" to="16379484#5"/>
    <trip id="234" depart="234.00" from="14516814#4" to="-287922412#1"/>
    <trip id="235" depart="235.00" from="14783001#0" to="612725641#0"/>
    <trip id="236" depart="236.00" from="173905478#0" to="20393467#1"/>
    <trip id="237" depart="237.00" from="437436877" to="257159658#1"/>
    <trip id="238" depart="238.00" from="1364779590#0" to="-104214892#6"/>
    <trip id="239" depart="239.00" from="124121092#1" to="23199742#0"/>
    <trip id="240" depart="240.00" from="420487883#3" to="691547014#0"/>
    <trip id="241" depart="241.00" from="1467042893#3" to="23199206#1"/>
    <trip id="242" depart="242.00" from="16376052#8" to="176614983#3"/>
    <trip id="243" depart="243.00" from="-339583627#3" to="-359150389"/>
    <trip id="244" depart="244.00" from="14889528#1" to="-1266127555"/>
    <trip id="245" depart="245.00" from="113342147#1" to="200504324#1"/>
    <trip id="246" depart="246.00" from="14251756#0" to="-206881243#8"/>
    <trip id="247" depart="247.00" from="15695220#0" to="-179438256#6"/>
    <trip id="248" depart="248.00" from="178156568#0" to="-124121092#2"/>
    <trip id="249" depart="249.00" from="141353236#0" to="173725226#7"/>
    <trip id="250" depart="250.00" from="-124121092#2" to="181790565#0"/>
    <trip id="251" depart="251.00" from="-180382028" to="15696903#1"/>
    <trip id="252" depart="252.00" from="-14293732#1" to="141039206#1"/>
    <trip id="253" depart="253.00" from="-28322054#1" to="113342182#1"/>
    <trip id="254" depart="254.00" from="23199746#6" to="141039206#1"/>
    <trip id="255" depart="255.00" from="23189803#0" to="37043360#4"/>
    <trip id="256" depart="256.00" from="-610275194" to="-16155925#0"/>
    <trip id="257" depart="257.00" from="-113342165#0" to="16378952#3"/>
    <trip id="258" depart="258.00" from="99721005#1" to="1304254521#2"/>
    <trip id="259" depart="259.00" from="181777526#2" to="26088722#0"/>
    <trip id="260" depart="260.00" from="181790581" to="23199746#6"/>
    <trip id="261" depart="261.00" from="687326054#0" to="-258871957#1"/>
    <trip id="262" depart="262.00" from="-113342193" to="-188337305#1"/>
    <trip id="263" depart="263.00" from="-176726720#1" to="19803858"/>
    <trip id="264" depart="264.00" from="16941153#0" to="-357014248#1"/>
    <trip id="265" depart="265.00" from="20383486#1" to="257180239#0"/>
    <trip id="266" depart="266.00" from="-206881243#7" to="176665208#0"/>
    <trip id="267" depart="267.00" from="219018391#1" to="-17479507#2"/>
    <trip id="268" depart="268.00" from="335683275#0" to="734717337#0"/>
    <trip id="269" depart="269.00" from="-173758801#2" to="-124121044#1"/>
    <trip id="270" depart="270.00" from="1099498670#3" to="200504294"/>
    <trip id="271" depart="271.00" from="699522668#0" to="14293073#2"/>
    <trip id="272" depart="272.00" from="207094483#3" to="-160289211#1"/>
    <trip id="273" depart="273.00" from="200524840#1" to="180382025#4"/>
    <trip id="274" depart="274.00" from="-16964142#0" to="257725242#1"/>
    <trip id="275" depart="275.00" from="412046206#11" to="176478062#2"/>
    <trip id="276" depart="276.00" from="-176033839#0" to="900172756"/>
    <trip id="277" depart="277.00" from="258849829#2" to="1270812911#4"/>
    <trip id="278" depart="278.00" from="14804282#0" to="1365761237#0"/>
    <trip id="279" depart="279.00" from="15920529#10" to="124121097#2"/>
    <trip id="280" depart="280.00" from="412046197#5" to="34324349#1"/>
    <trip id="281" depart="281.00" from="-173758769#16" to="723498517#0"/>
    <trip id="282" depart="282.00" from="180058075" to="357014255#1"/>
    <trip id="283" depart="283.00" from="20422080#0" to="14890048#7"/>
    <trip id="284" depart="284.00" from="213853343#1" to="736702800#1"/>
    <trip id="285" depart="285.00" from="-773785577" to="319245977#2"/>
    <trip id="286" depart="286.00" from="161704211" to="158699970#0"/>
    <trip id="287" depart="287.00" from="14889522#5" to="214724927#3"/>
    <trip id="288" depart="288.00" from="-723498513#1" to="433112668#1"/>
    <trip id="289" depart="289.00" from="34408788#1" to="-16368628#1"/>
    <trip id="290" depart="290.00" from="52285736#4" to="-610274233#2"/>
    <trip id="291" depart="291.00" from="15692438#1" to="176728600#5"/>
    <trip id="292" depart="292.00" from="412046206#26" to="-219018341#2"/>
    <trip id="293" depart="293.00" from="-300610670#0" to="283947019#1"/>
    <trip id="294" depart="294.00" from="1139264471#1" to="554514075"/>
    <trip id="295" depart="295.00" from="20388956#2" to="1014639086#0"/>
    <trip id="296" depart="296.00" from="-110166188#2" to="687326055"/>
    <trip id="297" depart="297.00" from="-161765234#2" to="213511255#1"/>
    <trip id="298" depart="298.00" from="15706837#7" to="23199813"/>
    <trip id="299" depart="299.00" from="200524840#1" to="181790655#3"/>
    <trip id="300" depart="300.00" from="15742295#0" to="272837811#2"/>
    <trip id="301" depart="301.00" from="-16385043#0" to="-381826238#0"/>
    <trip id="302" depart="302.00" from="200524848#6" to="110431087#0"/>
    <trip id="303" depart="303.00" from="173822289#0" to="15703057#4"/>
    <trip id="304" depart="304.00" from="16155578#3" to="14889547#0"/>
    <trip id="305" depart="305.00" from="217763599#3" to="114626776#14"/>
    <trip id="306" depart="306.00" from="20393313#6" to="-978510515"/>
    <trip id="307" depart="307.00" from="-610250404" to="-176448775#1"/>
    <trip id="308" depart="308.00" from="-23199801#1" to="-176033844#0"/>
    <trip id="309" depart="309.00" from="161573099#1" to="236069660#1"/>
    <trip id="310" depart="310.00" from="-219018341#1" to="-34324349#2"/>
    <trip id="311" depart="311.00" from="15703057#0" to="213538590"/>
    <trip id="312" depart="312.00" from="848373050#0" to="161573094#1"/>
    <trip id="313" depart="313.00" from="1001189149" to="-16964168#1"/>
    <trip id="314" depart="314.00" from="-23207262#1" to="-477822234#1"/>
    <trip id="315" depart="315.00" from="-21654349#6" to="-1115250747#3"/>
    <trip id="316" depart="316.00" from="16156690" to="1012626903#3"/>
    <trip id="317" depart="317.00" from="833648569#9" to="164871689"/>
    <trip id="318" depart="318.00" from="20147165#0" to="-178151906"/>
    <trip id="319" depart="319.00" from="469693216#1" to="15919024#3"/>
    <trip id="320" depart="320.00" from="478364957#0" to="173905467#0"/>
    <trip id="321" depart="321.00" from="15695466#7" to="14890176#8"/>
    <trip id="322" depart="322.00" from="-217763600#2" to="-14516234#4"/>
    <trip id="323" depart="323.00" from="682645528" to="15706953#2"/>
    <trip id="324" depart="324.00" from="339120301#0" to="14339504#1"/>
    <trip id="325" depart="325.00" from="-15921046" to="180382038"/>
    <trip id="326" depart="326.00" from="-145414573#1" to="-18677098"/>
    <trip id="327" depart="327.00" from="164695711#2" to="1102250717#0"/>
    <trip id="328" depart="328.00" from="978484031" to="-175963990#7"/>
    <trip id="329" depart="329.00" from="23199801#2" to="176665188#12"/>
    <trip id="330" depart="330.00" from="26140689#3" to="-46686086#0"/>
    <trip id="331" depart="331.00" from="16148665#0" to="15691163#6"/>
    <trip id="332" depart="332.00" from="14889953#16" to="46690892#0"/>
    <trip id="333" depart="333.00" from="961563490#1" to="1103977280#1"/>
    <trip id="334" depart="334.00" from="177862131#0" to="176726724#4"/>
    <trip id="335" depart="335.00" from="21654349#2" to="687326050"/>
    <trip id="336" depart="336.00" from="-263821331" to="-319245977#10"/>
    <trip id="337" depart="337.00" from="186411670" to="-200392015#1"/>
    <trip id="338" depart="338.00" from="-213504602" to="-160289153"/>
    <trip id="339" depart="339.00" from="-1029415333" to="15691163#5"/>
    <trip id="340" depart="340.00" from="174512305#1" to="104214907#1"/>
    <trip id="341" depart="341.00" from="-449542848#0" to="207094483#0"/>
    <trip id="342" depart="342.00" from="20393467#0" to="15692864#0"/>
    <trip id="343" depart="343.00" from="200504373#0" to="681578749#0"/>
    <trip id="344" depart="344.00" from="26029447#2" to="179936991#1"/>
    <trip id="345" depart="345.00" from="18675506#1" to="681859726#1"/>
    <trip id="346" depart="346.00" from="14799975" to="16381010#0"/>
    <trip id="347" depart="347.00" from="18146238#1" to="614538254#2"/>
    <trip id="348" depart="348.00" from="34323170" to="-159103261#2"/>
    <trip id="349" depart="349.00" from="-20422707#4" to="110846120"/>
    <trip id="350" depart="350.00" from="22101167" to="173758784#1"/>
    <trip id="351" depart="351.00" from="1015950554#0" to="-176665230#0"/>
    <trip id="352" depart="352.00" from="200512118#3" to="20422549"/>
    <trip id="353" depart="353.00" from="682860643#0" to="160172815"/>
    <trip id="354" depart="354.00" from="158593243" to="-16151659#2"/>
    <trip id="355" depart="355.00" from="-1365688130#2" to="14889953#16"/>
    <trip id="356" depart="356.00" from="1115218713" to="-681859684#0"/>
    <trip id="357" depart="357.00" from="-16381164" to="724287587#0"/>
    <trip id="358" depart="358.00" from="369956072#0" to="173905480#1"/>
    <trip id="359" depart="359.00" from="687344222#0" to="978886254#5"/>
    <trip id="360" depart="360.00" from="190625433#1" to="-957805923"/>
    <trip id="361" depart="361.00" from="-1370109511#2" to="23199784#2"/>
    <trip id="362" depart="362.00" from="15695664#0" to="18636675#9"/>
    <trip id="363" depart="363.00" from="626944467" to="-217858082"/>
    <trip id="364" depart="364.00" from="173905486#0" to="180786491#2"/>
    <trip id="365" depart="365.00" from="15742688#0" to="-16382030"/>
    <trip id="366" depart="366.00" from="121759266#0" to="1149915671#2"/>
    <trip id="367" depart="367.00" from="188337318" to="46686086#1"/>
    <trip id="368" depart="368.00" from="112282667#6" to="20388956#2"/>
    <trip id="369" depart="369.00" from="1015949102#4" to="685394486#0"/>
    <trip id="370" depart="370.00" from="319245977#2" to="16385572"/>
    <trip id="371" depart="371.00" from="14890253#1" to="1119103550#1"/>
    <trip id="372" depart="372.00" from="1115250747#7" to="800958710"/>
    <trip id="373" depart="373.00" from="14251486#2" to="16151659#2"/>
    <trip id="374" depart="374.00" from="957797640#5" to="18677098"/>
    <trip id="375" depart="375.00" from="162443752#1" to="14798438#0"/>
    <trip id="376" depart="376.00" from="-22102773" to="132575955#0"/>
    <trip id="377" depart="377.00" from="23199329#0" to="179936994#0"/>
    <trip id="378" depart="378.00" from="23199737#0" to="-26521703#1"/>
    <trip id="379" depart="379.00" from="16378903#2" to="681830731#0"/>
    <trip id="380" depart="380.00" from="14889671#4" to="20421649"/>
    <trip id="381" depart="381.00" from="-176033847#1" to="833648569#8"/>
    <trip id="382" depart="382.00" from="176448779#0" to="-589095955"/>
    <trip id="383" depart="383.00" from="-19890702" to="16385661#5"/>
    <trip id="384" depart="384.00" from="16379484#13" to="-16385750#0"/>
    <trip id="385" depart="385.00" from="961716645#2" to="621746710#0"/>
    <trip id="386" depart="386.00" from="15691163#4" to="-175820462#7"/>
    <trip id="387" depart="387.00" from="35354997#2" to="15921528#2"/>
    <trip id="388" depart="388.00" from="207094500#1" to="16147912"/>
    <trip id="389" depart="389.00" from="-846850921" to="374749389#3"/>
    <trip id="390" depart="390.00" from="88647150#1" to="-610274233#1"/>
    <trip id="391" depart="391.00" from="16379303#4" to="141351591#9"/>
    <trip id="392" depart="392.00" from="660344075#0" to="16147509"/>
    <trip id="393" depart="393.00" from="487463680#0" to="469691793"/>
    <trip id="394" depart="394.00" from="-886053691" to="26568092#0"/>
    <trip id="395" depart="395.00" from="14516234#2" to="681859731"/>
    <trip id="396" depart="396.00" from="15920749#2" to="34205962#2"/>
    <trip id="397" depart="397.00" from="1001189148#1" to="107935474#0"/>
    <trip id="398" depart="398.00" from="174318420#0" to="978872025#0"/>
    <trip id="399" depart="399.00" from="15707014#6" to="-18677003#2"/>
    <trip id="400" depart="400.00" from="161722528#1" to="1266100737#1"/>
    <trip id="401" depart="401.00" from="16379484#1" to="16379825"/>
    <trip id="402" depart="402.00" from="14890276#2" to="112283296"/>
    <trip id="403" depart="403.00" from="-23199328#2" to="20420831#0"/>
    <trip id="404" depart="404.00" from="173146234#2" to="-562256702#1"/>
    <trip id="405" depart="405.00" from="257192521#1" to="-1411061601"/>
    <trip id="406" depart="406.00" from="217763593#0" to="206892517#4"/>
    <trip id="407" depart="407.00" from="312143732#1" to="1414150595#4"/>